--------------------------------------------------------------------------
[[20047,1],1]: A high-performance Open MPI point-to-point messaging module
was unable to find any relevant network interfaces:

Module: OpenFabrics (openib)
  Host: 2a0c392ba0fc

Another transport will be used instead, although this may result in
lower performance.

NOTE: You can disable this warning by setting the MCA parameter
btl_base_warn_component_unused to 0.
--------------------------------------------------------------------------
 
-------------------------------------------------------------------------------
|                               DAFoam v3.0.7                                 |
-------------------------------------------------------------------------------
 
/*---------------------------------------------------------------------------*\
| =========                 |                                                 |
| \\      /  F ield         | OpenFOAM: The Open Source CFD Toolbox           |
|  \\    /   O peration     | Version:  v1812                                 |
|   \\  /    A nd           | Web:      www.OpenFOAM.com                      |
|    \\/     M anipulation  |                                                 |
\*---------------------------------------------------------------------------*/
Build  : v1812 OPENFOAM=1812
Arch   : "LSB;label=32;scalar=64"
Exec   : decomposePar
Date   : Aug 15 2023
Time   : 20:58:57
Host   : 2a0c392ba0fc
PID    : 496
I/O    : uncollated
Case   : /home/dafoamuser/mount
nProcs : 1
trapFpe: Floating point exception trapping enabled (FOAM_SIGFPE).
fileModificationChecking : Monitoring run-time modified files using timeStampMaster (fileModificationSkew 10)
allowSystemOperations : Allowing user-supplied system call operations

// * * * * * * * * * * * * * * * * * * * * * * * * * * * * * * * * * * * * * //
Create time

Overriding DebugSwitches according to controlDict
    SolverPerformance 0;



Decomposing mesh region0

Create mesh

Calculating distribution of cells
Selecting decompositionMethod scotch [4]

Finished decomposition in 0.01 s

Calculating original mesh data

Distributing cells to processors

Distributing faces to processors

Distributing points to processors

Constructing processor meshes
Overriding DebugSwitches according to controlDict
    SolverPerformance 0;


Processor 0
    Number of cells = 1008
    Number of faces shared with processor 1 = 33
    Number of faces shared with processor 2 = 32
    Number of processor patches = 2
    Number of processor faces = 65
    Number of boundary faces = 2079
Overriding DebugSwitches according to controlDict
    SolverPerformance 0;


Processor 1
    Number of cells = 1008
    Number of faces shared with processor 0 = 33
    Number of faces shared with processor 3 = 32
    Number of processor patches = 2
    Number of processor faces = 65
    Number of boundary faces = 2079
Overriding DebugSwitches according to controlDict
    SolverPerformance 0;


Processor 2
    Number of cells = 1008
    Number of faces shared with processor 0 = 32
    Number of faces shared with processor 3 = 34
    Number of processor patches = 2
    Number of processor faces = 66
    Number of boundary faces = 2078
Overriding DebugSwitches according to controlDict
    SolverPerformance 0;


Processor 3
    Number of cells = 1008
    Number of faces shared with processor 1 = 32
    Number of faces shared with processor 2 = 34
    Number of processor patches = 2
    Number of processor faces = 66
    Number of boundary faces = 2080

Number of processor faces = 131
Max number of cells = 1008 (0% above average 1008)
Max number of processor patches = 2 (0% above average 2)
Max number of faces between processors = 66 (0.7633587786259542% above average 65.5)

Time = 0

Processor 0: field transfer
Overriding DebugSwitches according to controlDict
    SolverPerformance 0;

Processor 1: field transfer
Overriding DebugSwitches according to controlDict
    SolverPerformance 0;

Processor 2: field transfer
Overriding DebugSwitches according to controlDict
    SolverPerformance 0;

Processor 3: field transfer
Overriding DebugSwitches according to controlDict
    SolverPerformance 0;


End

I/O    : uncollated
Case   : /home/dafoamuser/mount
nProcs : 4
Hosts  :
(
    (2a0c392ba0fc 4)
)
Pstream initialized with:
    floatTransfer      : 0
    nProcsSimpleSum    : 0
    commsType          : nonBlocking
    polling iterations : 0
Create time

Overriding DebugSwitches according to controlDict
    SolverPerformance 0;

Create mesh for time = 0
Initializing mesh and runtime for DASolver
DAOpton initialized 
I/O    : uncollated
Case   : /home/dafoamuser/mount
nProcs : 4
Hosts  :
(
    (2a0c392ba0fc 4)
)
Pstream initialized with:
    floatTransfer      : 0
    nProcsSimpleSum    : 0
    commsType          : nonBlocking
    polling iterations : 0
Create time

Overriding DebugSwitches according to controlDict
    SolverPerformance 0;

Create mesh for time = 0
Initializing mesh and runtime for DASolver
DAOpton initialized 
Initializing fields for DASimpleFoam
Create simpleControl.

SIMPLE: no convergence criteria found. Calculations will run for 1000 steps.

Reading field p

Reading field U

Reading/calculating face flux field phi

Creating source term. 
Selecting incompressible transport model Newtonian
Selecting turbulence model type RAS
Selecting RAS turbulence model SpalartAllmaras
Selecting patchDistMethod meshWaveFrozen
No MRF models present

Adjoint States: 
4
(
U volVectorState
nuTilda modelState
phi surfaceScalarState
p volScalarState
)
Global Cells: 4032
Global Faces: 16385
Global Xv: 25758
Undecomposed points: 8316
Global Adjoint States: 36545

SIMPLE: no convergence criteria found. Calculations will run for 1000 steps.

DACheckMesh Thresholds: 
maxNonOrth: 70
maxSkewness: 4
maxAspectRatio: 1000
maxIncorrectlyOrientedFaces: 0
    Adding all faces of patches 1(wing) ...
    Found matching patch wing with 32 faces.
    Adding all faces of patches 1(wing) ...
    Found matching patch wing with 32 faces.
Initializing fields for DASimpleFoam
Create simpleControl.

SIMPLE: no convergence criteria found. Calculations will run for 1000 steps.

Reading field p

Reading field U

Reading/calculating face flux field phi

Creating source term. 
Selecting incompressible transport model Newtonian
Selecting turbulence model type RAS
Selecting RAS turbulence model SpalartAllmaras
Selecting patchDistMethod meshWaveFrozen
No MRF models present

Adjoint States: 
4
(
U volVectorState
nuTilda modelState
phi surfaceScalarState
p volScalarState
)
Global Cells: 4032
Global Faces: 16385
Global Xv: 25758
Undecomposed points: 8316
Global Adjoint States: 36545

SIMPLE: no convergence criteria found. Calculations will run for 1000 steps.

DACheckMesh Thresholds: 
maxNonOrth: 70
maxSkewness: 4
maxAspectRatio: 1000
maxIncorrectlyOrientedFaces: 0
    Adding all faces of patches 1(wing) ...
    Found matching patch wing with 32 faces.
    Adding all faces of patches 1(wing) ...
    Found matching patch wing with 32 faces.
DAFoam option dictionary: 
{
    solverName      DASimpleFoam;
    primalMinResTol 1e-08;
    primalBC
    {
        U0
        {
            variable        U;
            patches         1 ( inout );
            value           3 ( 10 0 0 );
        }
        p0
        {
            variable        p;
            patches         1 ( inout );
            value           1 ( 0 );
        }
        nuTilda0
        {
            variable        nuTilda;
            patches         1 ( inout );
            value           1 ( 4.5e-05 );
        }
        useWallFunction 1;
    }
    normalizeStates
    {
        U               10;
        p               50;
        nuTilda         0.00045;
        phi             1;
    }
    objFunc
    {
        CD
        {
            part1
            {
                type            force;
                source          patchToFace;
                patches         1 ( wing );
                directionMode   parallelToFlow;
                alphaName       aoa;
                scale           0.2;
                addToAdjoint    1;
            }
        }
        CL
        {
            part1
            {
                type            force;
                source          patchToFace;
                patches         1 ( wing );
                directionMode   normalToFlow;
                alphaName       aoa;
                scale           0.2;
                addToAdjoint    1;
            }
        }
    }
    designVar
    {
        aoa
        {
            designVarType   AOA;
            patches         1 ( inout );
            flowAxis        x;
            normalAxis      y;
        }
        shape
        {
            designVarType   FFD;
        }
    }
    designSurfaces  1 ( wing );
    couplingInfo
    {
        aerostructural
        {
            active          0;
            pRef            0;
            propMovement    0;
            couplingSurfaceGroups
            {
                wingGroup       2 ( wing wing_te );
            }
        }
        aerothermal
        {
            active          0;
            couplingSurfaceGroups
            {
                wallGroup       1 ( fin_wall );
            }
        }
        aeroacoustic
        {
            active          0;
            pRef            0;
            couplingSurfaceGroups
            {
                blade1Group     2 ( blade1_ps blade1_ss );
                blade2Group     1 ( blade2 );
            }
        }
    }
    aeroPropulsive
    {
    }
    primalOnly      0;
    fvSource
    {
    }
    adjEqnSolMethod Krylov;
    primalVarBounds
    {
        UMax            1000;
        UMin            -1000;
        pMax            500000;
        pMin            20000;
        p_rghMax        500000;
        p_rghMin        20000;
        eMax            500000;
        eMin            100000;
        TMax            1000;
        TMin            100;
        hMax            500000;
        hMin            100000;
        DMax            1e+16;
        DMin            -1e+16;
        rhoMax          5;
        rhoMin          0.2;
        nuTildaMax      1e+16;
        nuTildaMin      1e-16;
        kMax            1e+16;
        kMin            1e-16;
        omegaMax        1e+16;
        omegaMin        1e-16;
        epsilonMax      1e+16;
        epsilonMin      1e-16;
        ReThetatMax     1e+16;
        ReThetatMin     1e-16;
        gammaIntMax     1e+16;
        gammaIntMin     1e-16;
    }
    discipline      aero;
    multiPoint      0;
    nMultiPoints    1;
    adjPartDerivFDStep
    {
        State           1e-06;
        FFD             0.001;
        BC              0.01;
        AOA             0.001;
        ACTP            0.01;
        ACTD            0.01;
        ACTL            0.01;
    }
    transonicPCOption -1;
    unsteadyAdjoint
    {
        mode            None;
        nTimeInstances  -1;
        periodicity     -1;
    }
    objFuncAvgStart 1;
    adjPCLag        10000;
    useAD
    {
        mode            reverse;
        dvName          None;
        seedIndex       -9999;
    }
    rigidBodyMotion
    {
        mode            dummy;
    }
    hasIterativeBC  0;
    runStatus       None;
    printPYDAFOAMOptions 0;
    printDAOptions  1;
    debug           0;
    writeJacobians  1 ( None );
    printInterval   100;
    printIntervalUnsteady 500;
    primalMinResTolDiff 100;
    adjUseColoring  1;
    adjEqnOption
    {
        globalPCIters   0;
        asmOverlap      1;
        localPCIters    1;
        jacMatReOrdering rcm;
        pcFillLevel     1;
        gmresMaxIters   1000;
        gmresRestart    1000;
        gmresRelTol     1e-06;
        gmresAbsTol     1e-14;
        gmresTolDiff    100;
        useNonZeroInitGuess 0;
        useMGSO         0;
        printInfo       1;
        fpMaxIters      1000;
        fpRelTol        1e-06;
        fpMinResTolDiff 100;
        fpPCUpwind      0;
        dynAdjustTol    1;
    }
    normalizeResiduals 10 ( URes pRes p_rghRes nuTildaRes phiRes TRes DRes kRes omegaRes epsilonRes );
    maxResConLv4JacPCMat
    {
        pRes            2;
        phiRes          1;
        URes            2;
        TRes            2;
        nuTildaRes      2;
        kRes            2;
        epsilonRes      2;
        omegaRes        2;
        p_rghRes        2;
        DRes            2;
    }
    jacLowerBounds
    {
        dRdW            1e-30;
        dRdWPC          1e-30;
    }
    maxTractionBCIters 100;
    decomposeParDict
    {
        method          scotch;
        simpleCoeffs
        {
            n               3 ( 2 2 1 );
            delta           0.001;
        }
        preservePatches 1 ( None );
        singleProcessorFaceSets 1 ( None );
    }
    adjStateOrdering state;
    meshSurfaceFamily None;
    checkMeshThreshold
    {
        maxAspectRatio  1000;
        maxNonOrth      70;
        maxSkewness     4;
        maxIncorrectlyOrientedFaces 0;
    }
    writeSensMap    1 ( NONE );
    writeDeformedFFDs 0;
    maxCorrectBCCalls 10;
    writeMinorIterations 0;
    runLowOrderPrimal4PC
    {
        active          0;
    }
    wingProp
    {
        test_propeller_default
        {
            active          0;
            nForceSections  10;
            axis            3 ( 1 0 0 );
            rotationCenter  3 { 0 };
            actEps          0.02;
            rotDir          right;
            interpScheme    Poly4Gauss;
            bladeName       blade;
        }
    }
    primalMinIters  -1;
    tensorflow
    {
        active          0;
        modelName       model;
        nInputs         1;
        nOutputs        1;
        batchSize       1000;
    }
}

Reading OpenFOAM mesh information...
I/O    : uncollated
Case   : /home/dafoamuser/mount
nProcs : 4
Hosts  :
(
    (2a0c392ba0fc 4)
)
Pstream initialized with:
    floatTransfer      : 0
    nProcsSimpleSum    : 0
    commsType          : nonBlocking
    polling iterations : 0
Reading the OpenFOAM mesh..
Overriding DebugSwitches according to controlDict
    SolverPerformance 0;

Finalising parallel run
Checking if we need to compress the mesh files
Checking if we need to compress the mesh files
I/O    : uncollated
pyDAFoam initialization done!
+----------------------------------------+
|          All IDWarp Options:           |
+----------------------------------------+
{'LdefFact': 1.0,
 'aExp': 3.0,
 'alpha': 0.25,
 'bExp': 5.0,
 'bucketSize': 8,
 'cornerAngle': 30.0,
 'errTol': 0.0005,
 'evalMode': 'fast',
 'fileType': 'OpenFOAM',
 'gridFile': '/home/dafoamuser/mount',
 'restartFile': None,
 'specifiedSurfaces': None,
 'symmTol': 1e-06,
 'symmetryPlanes': [[[0.0, 0.0, 0.0], [0.0, 0.0, 1.0]],
                    [[0.0, 0.0, 0.1], [0.0, 0.0, 1.0]]],
 'symmetrySurfaces': None,
 'useRotations': True,
 'zeroCornerRotations': True}
I/O    : uncollated
Case   : /home/dafoamuser/mount
nProcs : 4
Hosts  :
(
    (2a0c392ba0fc 4)
)
Pstream initialized with:
    floatTransfer      : 0
    nProcsSimpleSum    : 0
    commsType          : nonBlocking
    polling iterations : 0
Reading the OpenFOAM mesh..
Overriding DebugSwitches according to controlDict
    SolverPerformance 0;

Finalising parallel run
Checking if we need to compress the mesh files
Checking if we need to compress the mesh files
#------------------------------#
 Total Volume Nodes :      8586 
#------------------------------#
I/O    : uncollated
+-------------------- Symmetry Planes -------------------+
|           Point                        Normal          |
| (  0.000   0.000   0.000)    (  0.000   0.000   1.000) |
| (  0.000   0.000   0.100)    (  0.000   0.000   1.000) |
+--------------------------------------------------------+
#--------------------------------#
 Unique Surface Nodes :       252 
#--------------------------------#
 Computing Denomenator Estimate...
 Load Balancing...
 Finished Mesh Initialization.
OrderedDict([('inout', [0]), ('procBoundary0to1', [1]), ('procBoundary0to2', [2]), ('symmetry1', [3]), ('symmetry2', [4]), ('wing', [5]), ('allSurfaces', [0, 1, 2, 3, 4, 5]), ('allWalls', [5]), ('designSurfaces', [5])])
dRdWT Jacobian Free created!
Finding a feasible design using the Newton method. 
Constraints:  ['cruise.aero_post.CL']
Design Vars:  ['aoa']
Target:  [0.5]
Setting up primal boundary conditions based on pyOptions: 
Setting primal boundary conditions...
Setting U = (9.961946980917455 0.8715574274765816 0) at inout
Setting primal boundary conditions...
Setting p = 0 at inout
Setting primal boundary conditions...
Setting nuTilda = 4.5e-05 at inout
Setting nut wall BC for wing. BCType=nutUSpaldingWallFunction
Running Primal Solver 001
Previous solution time -1e+10 not found and nothing deleted.
No finite volume options present

Starting time loop

Checking mesh quality for time = 0
    Overall domain bounding box (-17.36955992934097 -18.580929029828 0) (18.72808974732804 18.580929008908 0.1)
    Mesh has 3 geometric (non-empty/wedge) directions 3{1}
    Mesh has 3 solution (non-empty) directions 3{1}
    Boundary openness (-4.00357692004596e-19 1.106679799037094e-19 -3.853013719984887e-16) OK.
    Max cell openness = 2.647572244145361e-16 OK.
    Max aspect ratio = 97.87218721638284 OK.
    Minimum face area = 2.254099143164308e-06. Maximum face area = 4.224820321497278.  Face area magnitudes OK.
    Min volume = 2.254099144856892e-07. Max volume = 0.422482032106397.  Total volume = 105.2804018655529.  Cell volumes OK.
    Mesh non-orthogonality Max: 22.74891598092847 average: 2.54793458191072
    Non-orthogonality check OK.
    Face pyramids OK.
    Max skewness = 1.432464754648327 OK.
    Coupled point location match (average 0) OK.

Mesh OK.

Time = 1

U Initial residual: (0.9999999999985791 1 0.9999999789083583)
U   Final residual: (0.08253195437842599 0.08007997629170777 0.08736150904408169)
p Initial residual: 1
p   Final residual: 0.09420528290841743
Time step continuity errors : sum local = 0.002527720150270248
                                 global = 0.0009556267474831936
                             cumulative = 0.0009556267474831936
nuTilda Initial residual: 0.99999999999949
          Final residual: 0.07790971354640897
Bounding nuTilda>1e-16
yPlus min: 48.4351086423926 max: 83.42381001918818 mean: 78.44874994389373
CD-part1-force: 0.5024466403369852
CL-part1-force: -0.03904823119113243
ExecutionTime = 0.79 s  ClockTime = 1 s

Time = 100

U Initial residual: (0.0006697970518932222 0.0005712939711316669 0.001529077226521293)
U   Final residual: (5.023100306953784e-05 5.439595417833063e-05 0.0001078141077905083)
p Initial residual: 0.004949597019660019
p   Final residual: 0.0003058759253783915
Time step continuity errors : sum local = 7.680996448501241e-06
                                 global = -1.628600336626331e-06
                             cumulative = 0.0009539981471465672
nuTilda Initial residual: 4.627915554514049e-05
          Final residual: 4.060818796300971e-06
Bounding nuTilda>1e-16
yPlus min: 15.27793624870672 max: 99.62400919791186 mean: 60.38989512004645
CD-part1-force: 0.02159274860223797
CL-part1-force: 0.4717844273178126
ExecutionTime = 1.31 s  ClockTime = 1 s

Time = 200

U Initial residual: (1.501227549278191e-05 1.18448169321117e-05 2.137188959129418e-05)
U   Final residual: (1.205554765080814e-06 9.615206231436229e-07 1.956541189388505e-06)
p Initial residual: 2.332321215359066e-05
p   Final residual: 2.113631517262286e-06
Time step continuity errors : sum local = 5.396212842451353e-08
                                 global = 3.762325686390854e-09
                             cumulative = 0.0009540019094722536
nuTilda Initial residual: 3.595737128975314e-07
          Final residual: 3.497173175029859e-08
Bounding nuTilda>1e-16
yPlus min: 14.58719897709983 max: 100.4979939069869 mean: 60.13620567272012
CD-part1-force: 0.02052490433297652
CL-part1-force: 0.486910684255885
ExecutionTime = 1.75 s  ClockTime = 2 s

Time = 300

U Initial residual: (5.471998208537266e-07 4.635870833518105e-07 8.098956334390843e-07)
U   Final residual: (4.354477361982752e-08 3.620562239587259e-08 6.895465680078722e-08)
p Initial residual: 9.452708068216411e-07
p   Final residual: 8.099851776212794e-08
Time step continuity errors : sum local = 2.069033536399637e-09
                                 global = -4.771415552311701e-10
                             cumulative = 0.0009540014323306984
nuTilda Initial residual: 1.696549439435125e-08
          Final residual: 1.464451824888342e-09
Bounding nuTilda>1e-16
yPlus min: 14.56961286602485 max: 100.5254079650552 mean: 60.13114609077221
CD-part1-force: 0.02049627824911359
CL-part1-force: 0.4874865404719045
ExecutionTime = 2.18 s  ClockTime = 2 s

[2a0c392ba0fc:00387] 3 more processes have sent help message help-mpi-btl-base.txt / btl:no-nics
[2a0c392ba0fc:00387] Set MCA parameter "orte_base_help_aggregate" to 0 to see all help / error messages
Time = 400

U Initial residual: (1.49295351145595e-08 1.164668119143891e-08 5.510044423410228e-08)
U   Final residual: (1.115780142747775e-09 8.850259707638234e-10 4.088019453804035e-09)
p Initial residual: 3.205236040056052e-08
p   Final residual: 2.488327219745148e-09
Time step continuity errors : sum local = 6.356323706406861e-11
                                 global = -1.936476938793511e-11
                             cumulative = 0.000954001412965929
nuTilda Initial residual: 5.761492415288263e-10
          Final residual: 4.501847232853881e-11
Bounding nuTilda>1e-16
yPlus min: 14.56898217759964 max: 100.5263230440089 mean: 60.13096415664995
CD-part1-force: 0.02049520548429352
CL-part1-force: 0.4875050134747785
ExecutionTime = 2.61 s  ClockTime = 2 s

Time = 433
Minimal residual 9.915051901466899e-09 satisfied the prescribed tolerance 1e-08

CD-part1-force: 0.02049518458238143
CL-part1-force: 0.4875053236475965
Printing Primal Residual Statistics.
U Residual Norm2: (0.0002537495330734628 0.0002913551886306788 1.357710611954834e-12)
U Residual Mean: (2.023069112483474e-06 7.981836935707181e-07 9.882707288864543e-15)
U Residual Max: (6.682187358819647e-05 0.0001213424784509698 2.429282534850794e-13)
p Residual Norm2: 8.771228428734363e-05
p Residual Mean: 1.252027865899022e-07
p Residual Max: 3.966276099751523e-05
nuTilda Residual Norm2: 1.096403953588363e-07
nuTilda Residual Mean: 3.769559683866252e-10
nuTilda Residual Max: 2.049321251384646e-08
phi Residual Norm2: 4.091460992691687e-07
phi Residual Mean: 1.049548496324963e-09
phi Residual Max: 1.008308886952046e-07
End

FindFeasibleDesign Iter:  0
DesignVars:  [5.]
Constraints:  [0.4875053236475965]
Residual Norm:  0.024989352704806955
Setting up primal boundary conditions based on pyOptions: 
Setting primal boundary conditions...
Setting U = (9.961931767853434 0.8717312961185533 0) at inout
Setting primal boundary conditions...
Setting p = 0 at inout
Setting primal boundary conditions...
Setting nuTilda = 4.5e-05 at inout
Setting nut wall BC for wing. BCType=nutUSpaldingWallFunction
Running Primal Solver 002
Previous solution time 433 found and deleted.
No finite volume options present

Starting time loop

Checking mesh quality for time = 0
    Overall domain bounding box (-17.36955992934097 -18.580929029828 0) (18.72808974732804 18.580929008908 0.1)
    Mesh has 3 geometric (non-empty/wedge) directions 3{1}
    Mesh has 3 solution (non-empty) directions 3{1}
    Boundary openness (-4.00357692004596e-19 1.106679799037094e-19 -3.853013719984887e-16) OK.
    Max cell openness = 2.647572244145361e-16 OK.
    Max aspect ratio = 97.87218721638284 OK.
    Minimum face area = 2.254099143164308e-06. Maximum face area = 4.224820321497278.  Face area magnitudes OK.
    Min volume = 2.254099144856892e-07. Max volume = 0.422482032106397.  Total volume = 105.2804018655529.  Cell volumes OK.
    Mesh non-orthogonality Max: 22.74891598092847 average: 2.54793458191072
    Non-orthogonality check OK.
    Face pyramids OK.
    Max skewness = 1.432464754648327 OK.
    Coupled point location match (average 0) OK.

Mesh OK.

Time = 1

U Initial residual: (0.0001338265743859055 0.0001277284602378561 0.000627417039201015)
U   Final residual: (1.136242446828443e-05 1.072519960234802e-05 4.700969529948103e-05)
p Initial residual: 0.001677811670384936
p   Final residual: 0.0001166175637226703
Time step continuity errors : sum local = 2.98287945192442e-06
                                 global = 2.057699372362003e-07
                             cumulative = 0.0009542071829031653
nuTilda Initial residual: 6.222068087939933e-05
          Final residual: 5.167722792390264e-06
Bounding nuTilda>1e-16
yPlus min: 14.60123392048879 max: 101.4346845769497 mean: 61.26060408123268
CD-part1-force: 0.01990968039577082
CL-part1-force: 0.4871229287136454
ExecutionTime = 2.87 s  ClockTime = 3 s

Time = 100

U Initial residual: (3.77493352271152e-06 3.593010666552726e-06 7.110988497290979e-06)
U   Final residual: (2.596472508102734e-07 3.275821164042742e-07 5.046417909372438e-07)
p Initial residual: 3.216341841256695e-05
p   Final residual: 2.094914221443908e-06
Time step continuity errors : sum local = 5.35218070114757e-08
                                 global = -8.8292606718055e-09
                             cumulative = 0.0009541983536424935
nuTilda Initial residual: 1.268537454917559e-07
          Final residual: 8.994119384289245e-09
Bounding nuTilda>1e-16
yPlus min: 14.56298602276523 max: 100.5353585695268 mean: 60.12837953042899
CD-part1-force: 0.02049142238599236
CL-part1-force: 0.4876706990914312
ExecutionTime = 3.3 s  ClockTime = 3 s

Time = 200

U Initial residual: (8.227298752786137e-08 6.511163696967248e-08 1.392796723144679e-07)
U   Final residual: (6.375656837694119e-09 5.109879912798047e-09 1.312531509172074e-08)
p Initial residual: 1.81194331939524e-07
p   Final residual: 1.563770867718664e-08
Time step continuity errors : sum local = 3.994957431572571e-10
                                 global = -2.412360615325285e-11
                             cumulative = 0.0009541983295188874
nuTilda Initial residual: 2.170880277897727e-09
          Final residual: 2.09767609561819e-10
Bounding nuTilda>1e-16
yPlus min: 14.56566980437964 max: 100.5310108790922 mean: 60.12956324767614
CD-part1-force: 0.02049730641789518
CL-part1-force: 0.4875987462336593
ExecutionTime = 3.74 s  ClockTime = 4 s

Time = 281
Minimal residual 9.688345825274998e-09 satisfied the prescribed tolerance 1e-08

CD-part1-force: 0.02049745534586291
CL-part1-force: 0.4875958044557892
Printing Primal Residual Statistics.
U Residual Norm2: (0.0003697567088005868 0.000473660747573039 1.704628900365584e-12)
U Residual Mean: (2.955500686825849e-06 1.318637110347013e-06 1.258890823953635e-14)
U Residual Max: (0.000107224540442985 0.0001931651413542568 2.377414813388787e-13)
p Residual Norm2: 0.0001382617406653578
p Residual Mean: 1.911356690037335e-07
p Residual Max: 6.284778262225562e-05
nuTilda Residual Norm2: 9.529091565590629e-08
nuTilda Residual Mean: 3.469840088594621e-10
nuTilda Residual Max: 1.754529357161836e-08
phi Residual Norm2: 6.306013674308917e-07
phi Residual Mean: 1.610055154598906e-09
phi Residual Max: 1.607553614967181e-07
End

Setting up primal boundary conditions based on pyOptions: 
Setting primal boundary conditions...
Setting U = (9.95981745611738 0.8955647608182965 0) at inout
Setting primal boundary conditions...
Setting p = 0 at inout
Setting primal boundary conditions...
Setting nuTilda = 4.5e-05 at inout
Setting nut wall BC for wing. BCType=nutUSpaldingWallFunction
Running Primal Solver 003
Previous solution time 281 found and deleted.
No finite volume options present

Starting time loop

Checking mesh quality for time = 0
    Overall domain bounding box (-17.36955992934097 -18.580929029828 0) (18.72808974732804 18.580929008908 0.1)
    Mesh has 3 geometric (non-empty/wedge) directions 3{1}
    Mesh has 3 solution (non-empty) directions 3{1}
    Boundary openness (-4.00357692004596e-19 1.106679799037094e-19 -3.853013719984887e-16) OK.
    Max cell openness = 2.647572244145361e-16 OK.
    Max aspect ratio = 97.87218721638284 OK.
    Minimum face area = 2.254099143164308e-06. Maximum face area = 4.224820321497278.  Face area magnitudes OK.
    Min volume = 2.254099144856892e-07. Max volume = 0.422482032106397.  Total volume = 105.2804018655529.  Cell volumes OK.
    Mesh non-orthogonality Max: 22.74891598092847 average: 2.54793458191072
    Non-orthogonality check OK.
    Face pyramids OK.
    Max skewness = 1.432464754648327 OK.
    Coupled point location match (average 0) OK.

Mesh OK.

Time = 1

U Initial residual: (0.0004220647800508357 0.00411449509667816 0.001294871967978802)
U   Final residual: (3.900541760909791e-05 0.0003161329950463767 0.0001186780369144163)
p Initial residual: 0.02789378778451335
p   Final residual: 0.001131946436762801
Time step continuity errors : sum local = 2.891034983973984e-05
                                 global = -9.539561028880644e-07
                             cumulative = 0.0009532443734159993
nuTilda Initial residual: 6.443666376103257e-05
          Final residual: 5.854941851500792e-06
Bounding nuTilda>1e-16
yPlus min: 14.59776819713945 max: 101.4397293198431 mean: 61.26061697343294
CD-part1-force: 0.02127068863847839
CL-part1-force: 0.4876040855122611
ExecutionTime = 4.21 s  ClockTime = 4 s

Time = 100

U Initial residual: (8.563828607727313e-06 7.451434385249612e-06 1.4167079799194e-05)
U   Final residual: (6.385919398496076e-07 5.879169563548795e-07 1.006612109079206e-06)
p Initial residual: 3.68745704759324e-05
p   Final residual: 3.182783471426864e-06
Time step continuity errors : sum local = 8.230401078235398e-08
                                 global = -3.90694510248212e-09
                             cumulative = 0.0009532404664708968
nuTilda Initial residual: 1.273014787701562e-06
          Final residual: 1.055033072551019e-07
Bounding nuTilda>1e-16
yPlus min: 14.23054652608405 max: 101.1304316118429 mean: 59.94301565469293
CD-part1-force: 0.02083175026339977
CL-part1-force: 0.4996876302748058
ExecutionTime = 4.63 s  ClockTime = 4 s

Time = 200

U Initial residual: (2.411129754994863e-07 3.109975378145379e-07 5.99398473299309e-07)
U   Final residual: (1.805858268561634e-08 3.012966585184112e-08 5.904404412935246e-08)
p Initial residual: 1.406935231240403e-06
p   Final residual: 7.014404395915509e-08
Time step continuity errors : sum local = 1.814479391361728e-09
                                 global = 8.81687335477205e-11
                             cumulative = 0.0009532405546396304
nuTilda Initial residual: 4.038551577681588e-09
          Final residual: 3.25552962242679e-10
Bounding nuTilda>1e-16
yPlus min: 14.22646042020907 max: 101.1416544873906 mean: 59.93864468752501
CD-part1-force: 0.02081805069739259
CL-part1-force: 0.4998969290517181
ExecutionTime = 5.06 s  ClockTime = 5 s

Time = 300

U Initial residual: (5.623783092166759e-09 9.774402529133283e-09 4.351774394755755e-08)
U   Final residual: (4.455999309655982e-10 6.382296900499629e-10 3.237289728314156e-09)
p Initial residual: 2.047302313395892e-08
p   Final residual: 1.795137722289248e-09
Time step continuity errors : sum local = 4.643663416616119e-11
                                 global = 4.596530300742669e-12
                             cumulative = 0.0009532405592361607
nuTilda Initial residual: 4.910400481816729e-10
          Final residual: 4.492250449078763e-11
Bounding nuTilda>1e-16
yPlus min: 14.22634546515493 max: 101.1419182666072 mean: 59.93860369394216
CD-part1-force: 0.02081765430800192
CL-part1-force: 0.4999021619554702
ExecutionTime = 5.5 s  ClockTime = 5 s

Time = 317
Minimal residual 9.711466728856371e-09 satisfied the prescribed tolerance 1e-08

CD-part1-force: 0.02081765336258637
CL-part1-force: 0.4999022505711739
Printing Primal Residual Statistics.
U Residual Norm2: (0.000380507501964275 0.0002468797272942994 9.494398017812982e-13)
U Residual Mean: (2.30485774416109e-06 9.68883282381722e-07 7.11258190327264e-15)
U Residual Max: (0.0001296971990996099 9.855112239165464e-05 2.156118543676158e-13)
p Residual Norm2: 7.924990603610759e-05
p Residual Mean: 1.181321564909217e-07
p Residual Max: 3.152167672017703e-05
nuTilda Residual Norm2: 5.86940486272931e-08
nuTilda Residual Mean: 2.161716460203788e-10
nuTilda Residual Max: 1.167501421089899e-08
phi Residual Norm2: 3.673948546285757e-07
phi Residual Mean: 1.022625060338532e-09
phi Residual Max: 7.880232527605236e-08
End

FindFeasibleDesign Iter:  1
DesignVars:  [5.138092006492726]
Constraints:  [0.4999022505711739]
Residual Norm:  0.00019549885765224317
Setting up primal boundary conditions based on pyOptions: 
Setting primal boundary conditions...
Setting U = (9.959801824046671 0.8957385922893922 0) at inout
Setting primal boundary conditions...
Setting p = 0 at inout
Setting primal boundary conditions...
Setting nuTilda = 4.5e-05 at inout
Setting nut wall BC for wing. BCType=nutUSpaldingWallFunction
Running Primal Solver 004
Previous solution time 317 found and deleted.
No finite volume options present

Starting time loop

Checking mesh quality for time = 0
    Overall domain bounding box (-17.36955992934097 -18.580929029828 0) (18.72808974732804 18.580929008908 0.1)
    Mesh has 3 geometric (non-empty/wedge) directions 3{1}
    Mesh has 3 solution (non-empty) directions 3{1}
    Boundary openness (-4.00357692004596e-19 1.106679799037094e-19 -3.853013719984887e-16) OK.
    Max cell openness = 2.647572244145361e-16 OK.
    Max aspect ratio = 97.87218721638284 OK.
    Minimum face area = 2.254099143164308e-06. Maximum face area = 4.224820321497278.  Face area magnitudes OK.
    Min volume = 2.254099144856892e-07. Max volume = 0.422482032106397.  Total volume = 105.2804018655529.  Cell volumes OK.
    Mesh non-orthogonality Max: 22.74891598092847 average: 2.54793458191072
    Non-orthogonality check OK.
    Face pyramids OK.
    Max skewness = 1.432464754648327 OK.
    Coupled point location match (average 0) OK.

Mesh OK.

Time = 1

U Initial residual: (0.0001313247712269885 0.0001259476138642988 0.0005828164534576646)
U   Final residual: (1.113240671459576e-05 1.057141292909486e-05 4.352985617037235e-05)
p Initial residual: 0.001655419335306016
p   Final residual: 0.0001149650537789556
Time step continuity errors : sum local = 2.977784401947806e-06
                                 global = 2.267287965361442e-07
                             cumulative = 0.0009534672880326968
nuTilda Initial residual: 6.137115476734708e-05
          Final residual: 5.098880158958228e-06
Bounding nuTilda>1e-16
yPlus min: 14.25884270166826 max: 102.0591862403803 mean: 61.06331837284681
CD-part1-force: 0.02023167635864367
CL-part1-force: 0.4995066162037626
ExecutionTime = 5.67 s  ClockTime = 5 s

Time = 100

U Initial residual: (3.842783130498399e-06 3.618334156174786e-06 6.780673288442694e-06)
U   Final residual: (2.661912963429777e-07 3.301766756702618e-07 4.697016551998084e-07)
p Initial residual: 3.23603773792104e-05
p   Final residual: 2.040472823706823e-06
Time step continuity errors : sum local = 5.279112961428812e-08
                                 global = -5.801965338168139e-09
                             cumulative = 0.0009534614860673586
nuTilda Initial residual: 1.373782893677434e-07
          Final residual: 9.265160255954661e-09
Bounding nuTilda>1e-16
yPlus min: 14.22309947385832 max: 101.1509118471038 mean: 59.93586314502311
CD-part1-force: 0.02081342689113832
CL-part1-force: 0.5000679192713492
ExecutionTime = 6.11 s  ClockTime = 6 s

Time = 200

U Initial residual: (8.217811654224742e-08 6.532377376706238e-08 1.289856419038252e-07)
U   Final residual: (6.344113956211759e-09 5.068858446222563e-09 1.215076444827131e-08)
p Initial residual: 2.076322650087434e-07
p   Final residual: 1.624192609078947e-08
Time step continuity errors : sum local = 4.201869674396707e-10
                                 global = -3.517821869594452e-11
                             cumulative = 0.0009534614508891399
nuTilda Initial residual: 2.254566654889889e-09
          Final residual: 2.187498679214185e-10
Bounding nuTilda>1e-16
yPlus min: 14.22457321910468 max: 101.1464815759544 mean: 59.93715338219594
CD-part1-force: 0.02081986147549653
CL-part1-force: 0.4999947457083781
ExecutionTime = 6.54 s  ClockTime = 6 s

Time = 285
Minimal residual 9.93450118317369e-09 satisfied the prescribed tolerance 1e-08

CD-part1-force: 0.02082001749814485
CL-part1-force: 0.4999917935329346
Printing Primal Residual Statistics.
U Residual Norm2: (0.0003734213662874412 0.000417660197887819 1.301567926806768e-12)
U Residual Mean: (2.873511323967859e-06 1.167635998017258e-06 1.000277122840879e-14)
U Residual Max: (9.648191462474642e-05 0.0001695966184342979 2.120143554107432e-13)
p Residual Norm2: 0.0001208159854801559
p Residual Mean: 1.709396263928213e-07
p Residual Max: 5.385978190295253e-05
nuTilda Residual Norm2: 9.433046897363262e-08
nuTilda Residual Mean: 3.511522142441174e-10
nuTilda Residual Max: 1.712029666891044e-08
phi Residual Norm2: 5.495350731043231e-07
phi Residual Mean: 1.451823341335078e-09
phi Residual Max: 1.389691350843883e-07
End

Setting up primal boundary conditions based on pyOptions: 
Setting primal boundary conditions...
Setting U = (9.959800391241004 0.8957545236478405 0) at inout
Setting primal boundary conditions...
Setting p = 0 at inout
Setting primal boundary conditions...
Setting nuTilda = 4.5e-05 at inout
Setting nut wall BC for wing. BCType=nutUSpaldingWallFunction
Running Primal Solver 005
Previous solution time 285 found and deleted.
No finite volume options present

Starting time loop

Checking mesh quality for time = 0
    Overall domain bounding box (-17.36955992934097 -18.580929029828 0) (18.72808974732804 18.580929008908 0.1)
    Mesh has 3 geometric (non-empty/wedge) directions 3{1}
    Mesh has 3 solution (non-empty) directions 3{1}
    Boundary openness (-4.00357692004596e-19 1.106679799037094e-19 -3.853013719984887e-16) OK.
    Max cell openness = 2.647572244145361e-16 OK.
    Max aspect ratio = 97.87218721638284 OK.
    Minimum face area = 2.254099143164308e-06. Maximum face area = 4.224820321497278.  Face area magnitudes OK.
    Min volume = 2.254099144856892e-07. Max volume = 0.422482032106397.  Total volume = 105.2804018655529.  Cell volumes OK.
    Mesh non-orthogonality Max: 22.74891598092847 average: 2.54793458191072
    Non-orthogonality check OK.
    Face pyramids OK.
    Max skewness = 1.432464754648327 OK.
    Coupled point location match (average 0) OK.

Mesh OK.

Time = 1

U Initial residual: (0.0001290757065265076 9.549452627044148e-05 0.0005791213436596391)
U   Final residual: (1.092510312726108e-05 7.574518816490229e-06 4.27845615449692e-05)
p Initial residual: 0.001477460890997626
p   Final residual: 0.0001449780569486149
Time step continuity errors : sum local = 3.755537410764542e-06
                                 global = -4.208506959942253e-07
                             cumulative = 0.0009530406001931457
nuTilda Initial residual: 6.131049910804659e-05
          Final residual: 5.093741584983901e-06
Bounding nuTilda>1e-16
yPlus min: 14.25756775690069 max: 102.0635588564988 mean: 61.0619518174416
CD-part1-force: 0.02022250444151411
CL-part1-force: 0.4995808665631435
ExecutionTime = 7.02 s  ClockTime = 7 s

Time = 100

U Initial residual: (3.821001310569936e-06 3.510362862848885e-06 6.806216569496586e-06)
U   Final residual: (2.735966322416717e-07 3.436456465731178e-07 4.750318807084184e-07)
p Initial residual: 3.023942559484896e-05
p   Final residual: 2.215937007218172e-06
Time step continuity errors : sum local = 5.733246986188733e-08
                                 global = -2.490181480722646e-08
                             cumulative = 0.0009530156983783384
nuTilda Initial residual: 1.440925979703147e-07
          Final residual: 1.425192541698101e-08
Bounding nuTilda>1e-16
yPlus min: 14.2228965702363 max: 101.1514020710476 mean: 59.93569027022652
CD-part1-force: 0.02081410032147313
CL-part1-force: 0.5000784526119354
ExecutionTime = 7.46 s  ClockTime = 7 s

Time = 200

U Initial residual: (8.290949895117488e-08 6.607261364865628e-08 1.287949592652638e-07)
U   Final residual: (6.419763013154275e-09 5.157824528490473e-09 1.193570726026094e-08)
p Initial residual: 2.072860803667698e-07
p   Final residual: 1.60633708187926e-08
Time step continuity errors : sum local = 4.155712141640609e-10
                                 global = -5.046991333444478e-11
                             cumulative = 0.0009530156479084251
nuTilda Initial residual: 2.30794698496715e-09
          Final residual: 2.216020740705129e-10
Bounding nuTilda>1e-16
yPlus min: 14.2244154522374 max: 101.146886789325 mean: 59.93702259236508
CD-part1-force: 0.02082007820250334
CL-part1-force: 0.5000029797974787
ExecutionTime = 7.89 s  ClockTime = 8 s

Time = 286
Minimal residual 9.672301623580215e-09 satisfied the prescribed tolerance 1e-08

CD-part1-force: 0.02082023623992231
CL-part1-force: 0.4999999771486946
Printing Primal Residual Statistics.
U Residual Norm2: (0.00036453121023875 0.0003976126794459132 1.357423904332721e-12)
U Residual Mean: (2.811342658624247e-06 1.14701637372547e-06 1.030614795176061e-14)
U Residual Max: (9.038276493811281e-05 0.0001602728725629277 2.163718968123978e-13)
p Residual Norm2: 0.0001154283741230001
p Residual Mean: 1.645485646733605e-07
p Residual Max: 5.085546654633488e-05
nuTilda Residual Norm2: 9.958326096116119e-08
nuTilda Residual Mean: 3.679698540210293e-10
nuTilda Residual Max: 1.812562977673436e-08
phi Residual Norm2: 5.258401282786043e-07
phi Residual Mean: 1.394673978870195e-09
phi Residual Max: 1.319207672219968e-07
End

FindFeasibleDesign Iter:  2
DesignVars:  [5.139183654869148]
Constraints:  [0.4999999771486946]
Residual Norm:  4.570261080694138e-08
FindFeasibleDesign Converged! 
Driver debug print for iter coord: rank0:pyOptSparse_IPOPT|0
------------------------------------------------------------
Design Vars
{'dvs.aoa': array([5.139183654869148]),
 'dvs.shape': array([0., 0., 0., 0., 0., 0., 0., 0., 0., 0., 0., 0., 0., 0., 0., 0., 0.,
       0., 0., 0.])}

Setting up primal boundary conditions based on pyOptions: 
Setting primal boundary conditions...
Setting U = (9.959800391241004 0.8957545236478405 0) at inout
Setting primal boundary conditions...
Setting p = 0 at inout
Setting primal boundary conditions...
Setting nuTilda = 4.5e-05 at inout
Setting nut wall BC for wing. BCType=nutUSpaldingWallFunction
Running Primal Solver 006
Previous solution time 286 found and deleted.
No finite volume options present

Starting time loop

Checking mesh quality for time = 0
    Overall domain bounding box (-17.36955992934097 -18.580929029828 0) (18.72808974732804 18.580929008908 0.1)
    Mesh has 3 geometric (non-empty/wedge) directions 3{1}
    Mesh has 3 solution (non-empty) directions 3{1}
    Boundary openness (-4.00357692004596e-19 1.106679799037094e-19 -3.853013719984887e-16) OK.
    Max cell openness = 2.647572244145361e-16 OK.
    Max aspect ratio = 97.87218721638284 OK.
    Minimum face area = 2.254099143164308e-06. Maximum face area = 4.224820321497278.  Face area magnitudes OK.
    Min volume = 2.254099144856892e-07. Max volume = 0.422482032106397.  Total volume = 105.2804018655529.  Cell volumes OK.
    Mesh non-orthogonality Max: 22.74891598092847 average: 2.54793458191072
    Non-orthogonality check OK.
    Face pyramids OK.
    Max skewness = 1.432464754648327 OK.
    Coupled point location match (average 0) OK.

Mesh OK.

Time = 1

U Initial residual: (0.0001288485965605983 9.24260054122333e-05 0.0005787539399414761)
U   Final residual: (1.090415643818823e-05 7.272377381314214e-06 4.271094188547799e-05)
p Initial residual: 0.001459498339929296
p   Final residual: 0.0001414171890239097
Time step continuity errors : sum local = 3.663329023160578e-06
                                 global = -3.51441330662242e-07
                             cumulative = 0.0009526642065777629
nuTilda Initial residual: 6.13090837044427e-05
          Final residual: 5.08631025517615e-06
Bounding nuTilda>1e-16
yPlus min: 14.25640579876656 max: 102.063876024685 mean: 61.06193991412778
CD-part1-force: 0.02027125299747203
CL-part1-force: 0.499655674079055
ExecutionTime = 8.380000000000001 s  ClockTime = 8 s

Time = 100

U Initial residual: (3.934527563633902e-06 3.675341141280502e-06 6.708235129255652e-06)
U   Final residual: (2.745637834904508e-07 3.394009427685813e-07 4.784700476137421e-07)
p Initial residual: 3.260857012665294e-05
p   Final residual: 1.972419110643847e-06
Time step continuity errors : sum local = 5.103146149586371e-08
                                 global = -3.399021193016403e-09
                             cumulative = 0.0009526608075565699
nuTilda Initial residual: 1.45612109509905e-07
          Final residual: 1.428384789188283e-08
Bounding nuTilda>1e-16
yPlus min: 14.22289600347473 max: 101.1514552987981 mean: 59.93568348382448
CD-part1-force: 0.02081338896204517
CL-part1-force: 0.500078677213013
ExecutionTime = 8.800000000000001 s  ClockTime = 9 s

Time = 200

U Initial residual: (8.414957267793935e-08 6.712579549135921e-08 1.303908431091887e-07)
U   Final residual: (6.516641101718177e-09 5.234270540075997e-09 1.222195385135354e-08)
p Initial residual: 2.082857337330481e-07
p   Final residual: 1.663101959524199e-08
Time step continuity errors : sum local = 4.302565753847981e-10
                                 global = -3.740725214499432e-11
                             cumulative = 0.0009526607701493178
nuTilda Initial residual: 2.289918431213068e-09
          Final residual: 2.204411969921818e-10
Bounding nuTilda>1e-16
yPlus min: 14.22441475069662 max: 101.1468893876039 mean: 59.93702286727375
CD-part1-force: 0.02082007554319542
CL-part1-force: 0.500003029510361
ExecutionTime = 9.24 s  ClockTime = 9 s

Time = 286
Minimal residual 9.80062991462956e-09 satisfied the prescribed tolerance 1e-08

CD-part1-force: 0.02082023602623808
CL-part1-force: 0.4999999827587583
Printing Primal Residual Statistics.
U Residual Norm2: (0.0003645554381844387 0.0004064093133202055 1.384488494825676e-12)
U Residual Mean: (2.827367727320732e-06 1.165809536456031e-06 1.065055903781395e-14)
U Residual Max: (9.189460797642823e-05 0.0001635690823604818 1.961207128147691e-13)
p Residual Norm2: 0.000118128133735818
p Residual Mean: 1.677570375610239e-07
p Residual Max: 5.248870382600373e-05
nuTilda Residual Norm2: 9.659884019978241e-08
nuTilda Residual Mean: 3.586392300977873e-10
nuTilda Residual Max: 1.757310982646055e-08
phi Residual Norm2: 5.291327082716952e-07
phi Residual Mean: 1.413505317218639e-09
phi Residual Max: 1.34326767038387e-07
End

Nonlinear constraints
{'cruise.aero_post.functionals.CL': array([0.4999999827587583]),
 'geometry.thickcon': array([1.0000000000000209, 1.                , 1.                ,
       1.0000000000000002, 1.0000000000000002, 1.                ,
       0.9999999999999998, 0.9999999999999999, 0.9999999999999998,
       1.000000000000003 , 1.0000000000000224, 0.9999999999999999,
       1.0000000000000004, 0.9999999999999999, 1.0000000000000002,
       1.                , 0.9999999999999997, 1.                ,
       0.9999999999999998, 0.9999999999999984]),
 'geometry.volcon': array([1.0000000000001716])}

Objectives
{'cruise.aero_post.functionals.CD': array([0.0208202360262381])}

Computing partials for  ['CD']
Calculating dFdW using reverse-mode AD
    Adding all faces of patches 1(wing) ...
    Found matching patch wing with 32 faces.
Calculating dFdXv using reverse-mode AD
    Adding all faces of patches 1(wing) ...
    Found matching patch wing with 32 faces.


+--------------------------------------------------------------------------+
|                       Running Coloring Solver                            |
+--------------------------------------------------------------------------+
I/O    : uncollated
Case   : /home/dafoamuser/mount
nProcs : 4
Hosts  :
(
    (2a0c392ba0fc 4)
)
Pstream initialized with:
    floatTransfer      : 0
    nProcsSimpleSum    : 0
    commsType          : nonBlocking
    polling iterations : 0
Create time

Overriding DebugSwitches according to controlDict
    SolverPerformance 0;

Create mesh for time = 0
Reading/calculating face flux field phi

Selecting incompressible transport model Newtonian
Selecting turbulence model type RAS
Selecting RAS turbulence model SpalartAllmaras
Selecting patchDistMethod meshWaveFrozen
Checking if Coloring file exists..
dRdWCon Created. 1 s
Calculating dRdW Coloring... 1 s
Calculating dRdW Coloring..
Parallel Distance 2 Graph Coloring....
MaxCols: 129
AllNonZeros: 2539971
nUniqueCols: 10291
ColorSweep: 0   1 s
number of uncolored: 31694 4
ColorSweep: 100   2 s
number of uncolored: 19158 4
ColorSweep: 200   2 s
number of uncolored: 7950 4
ColorSweep: 300   3 s
number of uncolored: 35 3
ColorSweep: 305   3 s
number of uncolored: 0 0
Global ColorSweep: 0   3 s
Number of Uncolored: 4632 4
Global ColorSweep: 100   3 s
Number of Uncolored: 3699 4
Global ColorSweep: 200   4 s
Number of Uncolored: 2540 4
Global ColorSweep: 300   4 s
Number of Uncolored: 1032 4
Global ColorSweep: 379   5 s
Number of Uncolored: 0 0
Ncolors: 380
Validating Coloring...
No Conflicting Colors Found!
 nJacConColors: 380
Writing Colors to dRdWColoring_4
Calculating dRdW Coloring... Completed! 5 s
Checking if Coloring file exists..
    Adding all faces of patches 1(wing) ...
    Found matching patch wing with 32 faces.
dFdWCon Created!
Setting up dFdWCon..
dFdWCon Created. 5 s
Calculating dFdW CD-part1 Coloring... 5 s
Calculating dFdW Coloring..
Parallel Distance 2 Graph Coloring....
MaxCols: 14
AllNonZeros: 1764
nUniqueCols: 262
ColorSweep: 0   5 s
number of uncolored: 911 4
ColorSweep: 26   5 s
number of uncolored: 0 0
Global ColorSweep: 0   5 s
Number of Uncolored: 24 4
Global ColorSweep: 19   5 s
Number of Uncolored: 0 0
Ncolors: 27
Validating Coloring...
No Conflicting Colors Found!
 nJacConColors: 27
Writing Colors to dFdWColoring_CD_part1_4
Calculating dFdW CD-part1 Coloring... Completed5 s
Checking if Coloring file exists..
    Adding all faces of patches 1(wing) ...
    Found matching patch wing with 32 faces.
dFdWCon Created!
Setting up dFdWCon..
dFdWCon Created. 5 s
Calculating dFdW CL-part1 Coloring... 5 s
Calculating dFdW Coloring..
Parallel Distance 2 Graph Coloring....
MaxCols: 14
AllNonZeros: 1764
nUniqueCols: 262
ColorSweep: 0   5 s
number of uncolored: 911 4
ColorSweep: 26   5 s
number of uncolored: 0 0
Global ColorSweep: 0   5 s
Number of Uncolored: 24 4
Global ColorSweep: 19   5 s
Number of Uncolored: 0 0
Ncolors: 27
Validating Coloring...
No Conflicting Colors Found!
 nJacConColors: 27
Writing Colors to dFdWColoring_CL_part1_4
Calculating dFdW CL-part1 Coloring... Completed5 s
Finalising parallel run
Moving time 286 to 0.00000001
Driver total derivatives for iteration: 1
---------------------------------------------
Computing dRdWTPC 15 s
Initializing dRdWCon. 15 s
I/O    : uncollated
dRdWCon Created. 16 s
Reading Coloring dRdWColoring_4
Validating Coloring...
No Conflicting Colors Found!
Partial derivative matrix created. 16 s
dRdWTPC: 0 of 380, ExecutionTime: 16 s
dRdWTPC: 100 of 380, ExecutionTime: 16 s
dRdWTPC: 200 of 380, ExecutionTime: 17 s
dRdWTPC: 300 of 380, ExecutionTime: 18 s
dRdWTPC: 379 of 380, ExecutionTime: 19 s
Solver Type: gmres
GMRES Restart: 1000
ASM Overlap: 1
Global PC Iters: 0
Local PC Iters: 1
Mat ReOrdering: rcm
ILU PC Fill Level: 1
GMRES Max Iterations: 1000
GMRES Relative Tolerance: 1e-06
GMRES Absolute Tolerance: 1e-14
Calculating [dRdW]^T * Psi using reverse-mode AD
Solving Linear Equation... 19 s
Main iteration 0 KSP Residual norm 3.216462009016e-02 19 s
Main iteration 100 KSP Residual norm 5.785804213037e-05 22 s
Main iteration 167 KSP Residual norm 2.999605237863e-08 24 s 
Total iterations 167
Solving Linear Equation... Completed! 24 s
Residual tolerance satisfied, solution finished!
Calculating [dRdAOA]^T * Psi using reverse-mode AD
Calculating [dRdXv]^T * Psi using reverse-mode AD
Computing partials for  ['CL']
Calculating dFdW using reverse-mode AD
    Adding all faces of patches 1(wing) ...
    Found matching patch wing with 32 faces.
Calculating dFdXv using reverse-mode AD
    Adding all faces of patches 1(wing) ...
    Found matching patch wing with 32 faces.
Solution time 1e-08 less than 1e-4, not renamed.
Calculating [dRdW]^T * Psi using reverse-mode AD
Solving Linear Equation... 26 s
Main iteration 0 KSP Residual norm 1.951477038990e-01 26 s
Main iteration 100 KSP Residual norm 3.993979594724e-04 29 s
Main iteration 169 KSP Residual norm 1.802721006583e-07 31 s 
Total iterations 169
Solving Linear Equation... Completed! 31 s
Residual tolerance satisfied, solution finished!
Calculating [dRdAOA]^T * Psi using reverse-mode AD
Calculating [dRdXv]^T * Psi using reverse-mode AD


Optimization Problem -- Optimization using pyOpt_sparse
================================================================================
    Objective Function: _objfunc


   Objectives
      Index  Name                                       Value
          0  cruise.aero_post.functionals.CD     0.000000E+00

   Variables (c - continuous, i - integer, d - discrete)
      Index  Name           Type      Lower Bound            Value      Upper Bound     Status
          0  dvs.shape_0       c    -1.000000E+00     0.000000E+00     1.000000E+00           
          1  dvs.shape_1       c    -1.000000E+00     0.000000E+00     1.000000E+00           
          2  dvs.shape_2       c    -1.000000E+00     0.000000E+00     1.000000E+00           
          3  dvs.shape_3       c    -1.000000E+00     0.000000E+00     1.000000E+00           
          4  dvs.shape_4       c    -1.000000E+00     0.000000E+00     1.000000E+00           
          5  dvs.shape_5       c    -1.000000E+00     0.000000E+00     1.000000E+00           
          6  dvs.shape_6       c    -1.000000E+00     0.000000E+00     1.000000E+00           
          7  dvs.shape_7       c    -1.000000E+00     0.000000E+00     1.000000E+00           
          8  dvs.shape_8       c    -1.000000E+00     0.000000E+00     1.000000E+00           
          9  dvs.shape_9       c    -1.000000E+00     0.000000E+00     1.000000E+00           
         10  dvs.shape_10      c    -1.000000E+00     0.000000E+00     1.000000E+00           
         11  dvs.shape_11      c    -1.000000E+00     0.000000E+00     1.000000E+00           
         12  dvs.shape_12      c    -1.000000E+00     0.000000E+00     1.000000E+00           
         13  dvs.shape_13      c    -1.000000E+00     0.000000E+00     1.000000E+00           
         14  dvs.shape_14      c    -1.000000E+00     0.000000E+00     1.000000E+00           
         15  dvs.shape_15      c    -1.000000E+00     0.000000E+00     1.000000E+00           
         16  dvs.shape_16      c    -1.000000E+00     0.000000E+00     1.000000E+00           
         17  dvs.shape_17      c    -1.000000E+00     0.000000E+00     1.000000E+00           
         18  dvs.shape_18      c    -1.000000E+00     0.000000E+00     1.000000E+00           
         19  dvs.shape_19      c    -1.000000E+00     0.000000E+00     1.000000E+00           
         20  dvs.aoa_0         c     0.000000E+00     5.139184E+00     1.000000E+01           

   Constraints (i - inequality, e - equality)
      Index  Name                            Type          Lower           Value           Upper    Status  Lagrange Multiplier (N/A)
          0  cruise.aero_post.functionals.CL    e   5.000000E-01    0.000000E+00    5.000000E-01         E    9.00000E+100
          1  geometry.tecon                     e   0.000000E+00    0.000000E+00    0.000000E+00              9.00000E+100
          2  geometry.tecon                     e   0.000000E+00    0.000000E+00    0.000000E+00              9.00000E+100
          3  geometry.lecon                     e   0.000000E+00    0.000000E+00    0.000000E+00              9.00000E+100
          4  geometry.lecon                     e   0.000000E+00    0.000000E+00    0.000000E+00              9.00000E+100
          5  geometry.linearcon                 e   0.000000E+00    0.000000E+00    0.000000E+00              9.00000E+100
          6  geometry.linearcon                 e   0.000000E+00    0.000000E+00    0.000000E+00              9.00000E+100
          7  geometry.linearcon                 e   0.000000E+00    0.000000E+00    0.000000E+00              9.00000E+100
          8  geometry.linearcon                 e   0.000000E+00    0.000000E+00    0.000000E+00              9.00000E+100
          9  geometry.linearcon                 e   0.000000E+00    0.000000E+00    0.000000E+00              9.00000E+100
         10  geometry.linearcon                 e   0.000000E+00    0.000000E+00    0.000000E+00              9.00000E+100
         11  geometry.linearcon                 e   0.000000E+00    0.000000E+00    0.000000E+00              9.00000E+100
         12  geometry.linearcon                 e   0.000000E+00    0.000000E+00    0.000000E+00              9.00000E+100
         13  geometry.linearcon                 e   0.000000E+00    0.000000E+00    0.000000E+00              9.00000E+100
         14  geometry.linearcon                 e   0.000000E+00    0.000000E+00    0.000000E+00              9.00000E+100
         15  geometry.thickcon                  i   5.000000E-01    0.000000E+00    3.000000E+00         L    9.00000E+100
         16  geometry.thickcon                  i   5.000000E-01    0.000000E+00    3.000000E+00         L    9.00000E+100
         17  geometry.thickcon                  i   5.000000E-01    0.000000E+00    3.000000E+00         L    9.00000E+100
         18  geometry.thickcon                  i   5.000000E-01    0.000000E+00    3.000000E+00         L    9.00000E+100
         19  geometry.thickcon                  i   5.000000E-01    0.000000E+00    3.000000E+00         L    9.00000E+100
         20  geometry.thickcon                  i   5.000000E-01    0.000000E+00    3.000000E+00         L    9.00000E+100
         21  geometry.thickcon                  i   5.000000E-01    0.000000E+00    3.000000E+00         L    9.00000E+100
         22  geometry.thickcon                  i   5.000000E-01    0.000000E+00    3.000000E+00         L    9.00000E+100
         23  geometry.thickcon                  i   5.000000E-01    0.000000E+00    3.000000E+00         L    9.00000E+100
         24  geometry.thickcon                  i   5.000000E-01    0.000000E+00    3.000000E+00         L    9.00000E+100
         25  geometry.thickcon                  i   5.000000E-01    0.000000E+00    3.000000E+00         L    9.00000E+100
         26  geometry.thickcon                  i   5.000000E-01    0.000000E+00    3.000000E+00         L    9.00000E+100
         27  geometry.thickcon                  i   5.000000E-01    0.000000E+00    3.000000E+00         L    9.00000E+100
         28  geometry.thickcon                  i   5.000000E-01    0.000000E+00    3.000000E+00         L    9.00000E+100
         29  geometry.thickcon                  i   5.000000E-01    0.000000E+00    3.000000E+00         L    9.00000E+100
         30  geometry.thickcon                  i   5.000000E-01    0.000000E+00    3.000000E+00         L    9.00000E+100
         31  geometry.thickcon                  i   5.000000E-01    0.000000E+00    3.000000E+00         L    9.00000E+100
         32  geometry.thickcon                  i   5.000000E-01    0.000000E+00    3.000000E+00         L    9.00000E+100
         33  geometry.thickcon                  i   5.000000E-01    0.000000E+00    3.000000E+00         L    9.00000E+100
         34  geometry.thickcon                  i   5.000000E-01    0.000000E+00    3.000000E+00         L    9.00000E+100
         35  geometry.volcon                    i   1.000000E+00    0.000000E+00    1.000000E+30         L    9.00000E+100


List of user-set options:

                                    Name   Value                used
                             alpha_for_y = full                  yes
                         constr_viol_tol = 1e-05                 yes
                        file_print_level = 5                     yes
                   hessian_approximation = limited-memory        yes
              limited_memory_max_history = 10                    yes
                           linear_solver = mumps                 yes
                                max_iter = 100                   yes
                             mu_strategy = adaptive              yes
                      nlp_scaling_method = none                  yes
                             output_file = opt_IPOPT.txt         yes
                             print_level = 5                     yes
                      print_user_options = yes                   yes
                                recalc_y = yes                   yes
                                      sb = yes                   yes
                                     tol = 1e-05                 yes
This is Ipopt version 3.13.5, running with linear solver mumps.
NOTE: Other linear solvers might be more efficient (see Ipopt documentation).

Number of nonzeros in equality constraint Jacobian...:       49
Number of nonzeros in inequality constraint Jacobian.:      420
Number of nonzeros in Lagrangian Hessian.............:        0

Driver debug print for iter coord: rank0:pyOptSparse_IPOPT|1
------------------------------------------------------------
Design Vars
{'dvs.aoa': array([5.139183654869148]),
 'dvs.shape': array([0., 0., 0., 0., 0., 0., 0., 0., 0., 0., 0., 0., 0., 0., 0., 0., 0.,
       0., 0., 0.])}

Setting up primal boundary conditions based on pyOptions: 
Setting primal boundary conditions...
Setting U = (9.959800391241004 0.8957545236478405 0) at inout
Setting primal boundary conditions...
Setting p = 0 at inout
Setting primal boundary conditions...
Setting nuTilda = 4.5e-05 at inout
Setting nut wall BC for wing. BCType=nutUSpaldingWallFunction
Running Primal Solver 007
Previous solution time 286 not found and nothing deleted.
No finite volume options present

Starting time loop

Checking mesh quality for time = 0
    Overall domain bounding box (-17.36955992934097 -18.580929029828 0) (18.72808974732804 18.580929008908 0.1)
    Mesh has 3 geometric (non-empty/wedge) directions 3{1}
    Mesh has 3 solution (non-empty) directions 3{1}
    Boundary openness (-4.00357692004596e-19 1.106679799037094e-19 -3.853013719984887e-16) OK.
    Max cell openness = 2.647572244145361e-16 OK.
    Max aspect ratio = 97.87218721638284 OK.
    Minimum face area = 2.254099143164308e-06. Maximum face area = 4.224820321497278.  Face area magnitudes OK.
    Min volume = 2.254099144856892e-07. Max volume = 0.422482032106397.  Total volume = 105.2804018655529.  Cell volumes OK.
    Mesh non-orthogonality Max: 22.74891598092847 average: 2.54793458191072
    Non-orthogonality check OK.
    Face pyramids OK.
    Max skewness = 1.432464754648327 OK.
    Coupled point location match (average 0) OK.

Mesh OK.

Time = 1

U Initial residual: (0.0001288486925995852 9.24261033136047e-05 0.0005787541493668896)
U   Final residual: (1.090416479659244e-05 7.272384393143579e-06 4.271094336261067e-05)
p Initial residual: 0.001459498560584094
p   Final residual: 0.0001458574534124768
Time step continuity errors : sum local = 3.778351471456543e-06
                                 global = -3.834829947312399e-07
                             cumulative = 0.0009522772871545866
nuTilda Initial residual: 6.130871728945891e-05
          Final residual: 5.093339574309986e-06
Bounding nuTilda>1e-16
yPlus min: 14.25741122836346 max: 102.0639677003593 mean: 61.06181826104423
CD-part1-force: 0.02022185724355076
CL-part1-force: 0.499588459086359
ExecutionTime = 32.25 s  ClockTime = 32 s

Time = 100

U Initial residual: (3.827832956179042e-06 3.514390469654148e-06 6.809000903998612e-06)
U   Final residual: (2.741877232014348e-07 3.442264924590357e-07 4.756583810479092e-07)
p Initial residual: 3.024359463117325e-05
p   Final residual: 2.217163959554989e-06
Time step continuity errors : sum local = 5.736422360679385e-08
                                 global = -2.490506630175085e-08
                             cumulative = 0.0009522523820882848
nuTilda Initial residual: 1.448829631965735e-07
          Final residual: 1.425335744493563e-08
Bounding nuTilda>1e-16
yPlus min: 14.2228928199142 max: 101.1514127389936 mean: 59.93568644495413
CD-part1-force: 0.02081408567674467
CL-part1-force: 0.5000786397604291
ExecutionTime = 32.69 s  ClockTime = 33 s

Time = 200

U Initial residual: (8.305203088998977e-08 6.619046975651337e-08 1.323234845481591e-07)
U   Final residual: (6.431727362288413e-09 5.168868076724161e-09 1.270591373505069e-08)
p Initial residual: 2.071957464104192e-07
p   Final residual: 1.609683604333003e-08
Time step continuity errors : sum local = 4.164369844500828e-10
                                 global = -5.058868642358453e-11
                             cumulative = 0.0009522523314995984
nuTilda Initial residual: 2.315162979652292e-09
          Final residual: 2.218243282876153e-10
Bounding nuTilda>1e-16
yPlus min: 14.22441535947183 max: 101.1468870865329 mean: 59.93702257135701
CD-part1-force: 0.02082007791884193
CL-part1-force: 0.5000029868937469
ExecutionTime = 33.14 s  ClockTime = 33 s

Time = 286
Minimal residual 9.681456787241971e-09 satisfied the prescribed tolerance 1e-08

CD-part1-force: 0.02082023622922021
CL-part1-force: 0.4999999773678679
Printing Primal Residual Statistics.
U Residual Norm2: (0.0003644898885102929 0.0003979333396395253 1.319062755392256e-12)
U Residual Mean: (2.812070629624281e-06 1.147506848470241e-06 1.011231246453684e-14)
U Residual Max: (9.046007562574232e-05 0.0001604378867341438 1.955591745710773e-13)
p Residual Norm2: 0.0001155131304713405
p Residual Mean: 1.646347801526251e-07
p Residual Max: 5.090743770103854e-05
nuTilda Residual Norm2: 9.961503629950902e-08
nuTilda Residual Mean: 3.679823876787209e-10
nuTilda Residual Max: 1.813427643820559e-08
phi Residual Norm2: 5.262021441210936e-07
phi Residual Mean: 1.395370294827641e-09
phi Residual Max: 1.32042361694861e-07
End

Nonlinear constraints
{'cruise.aero_post.functionals.CL': array([0.4999999773678679]),
 'geometry.thickcon': array([1.0000000000000209, 1.                , 1.                ,
       1.0000000000000002, 1.0000000000000002, 1.                ,
       0.9999999999999998, 0.9999999999999999, 0.9999999999999998,
       1.000000000000003 , 1.0000000000000224, 0.9999999999999999,
       1.0000000000000004, 0.9999999999999999, 1.0000000000000002,
       1.                , 0.9999999999999997, 1.                ,
       0.9999999999999998, 0.9999999999999984]),
 'geometry.volcon': array([1.0000000000001716])}

Objectives
{'cruise.aero_post.functionals.CD': array([0.0208202362292202])}

Computing partials for  ['CD']
Calculating dFdW using reverse-mode AD
    Adding all faces of patches 1(wing) ...
    Found matching patch wing with 32 faces.
Calculating dFdXv using reverse-mode AD
    Adding all faces of patches 1(wing) ...
    Found matching patch wing with 32 faces.
Moving time 286 to 0.00000002
Driver total derivatives for iteration: 2
---------------------------------------------
Calculating [dRdW]^T * Psi using reverse-mode AD
Solving Linear Equation... 34 s
Main iteration 0 KSP Residual norm 3.216462009020e-02 34 s
Main iteration 100 KSP Residual norm 5.785804279443e-05 37 s
Main iteration 167 KSP Residual norm 2.999605514705e-08 40 s 
Total iterations 167
Solving Linear Equation... Completed! 40 s
Residual tolerance satisfied, solution finished!
Calculating [dRdAOA]^T * Psi using reverse-mode AD
Calculating [dRdXv]^T * Psi using reverse-mode AD
Computing partials for  ['CL']
Calculating dFdW using reverse-mode AD
    Adding all faces of patches 1(wing) ...
    Found matching patch wing with 32 faces.
Calculating dFdXv using reverse-mode AD
    Adding all faces of patches 1(wing) ...
    Found matching patch wing with 32 faces.
Solution time 2e-08 less than 1e-4, not renamed.
Calculating [dRdW]^T * Psi using reverse-mode AD
Solving Linear Equation... 41 s
Main iteration 0 KSP Residual norm 1.951477038990e-01 41 s
Main iteration 100 KSP Residual norm 3.993979755156e-04 44 s
Main iteration 169 KSP Residual norm 1.802721083033e-07 47 s 
Total iterations 169
Solving Linear Equation... Completed! 47 s
Residual tolerance satisfied, solution finished!
Calculating [dRdAOA]^T * Psi using reverse-mode AD
Calculating [dRdXv]^T * Psi using reverse-mode AD
Total number of variables............................:       21
                     variables with only lower bounds:        0
                variables with lower and upper bounds:       21
                     variables with only upper bounds:        0
Total number of equality constraints.................:       15
Total number of inequality constraints...............:       21
        inequality constraints with only lower bounds:        1
   inequality constraints with lower and upper bounds:       20
        inequality constraints with only upper bounds:        0

iter    objective    inf_pr   inf_du lg(mu)  ||d||  lg(rg) alpha_du alpha_pr  ls
   0  2.0820236e-02 2.26e-08 8.55e-02   0.0 0.00e+00    -  0.00e+00 0.00e+00   0
Driver debug print for iter coord: rank0:pyOptSparse_IPOPT|2
------------------------------------------------------------
Design Vars
{'dvs.aoa': array([5.138058360094089]),
 'dvs.shape': array([ 0.                ,  0.                ,  0.                ,
        0.                ,  0.0037199017958811,  0.0037199017958811,
        0.0057560033475317,  0.0057560033475317,  0.0000073675930758,
        0.0000073675930758,  0.0006193254714702,  0.0006193254714702,
       -0.0025275776435109, -0.0025275776435109, -0.0016395625005331,
       -0.0016395625005331,  0.                ,  0.                ,
        0.                ,  0.                ])}

Setting up primal boundary conditions based on pyOptions: 
Setting primal boundary conditions...
Setting U = (9.959817982027504 0.89555891201058 0) at inout
Setting primal boundary conditions...
Setting p = 0 at inout
Setting primal boundary conditions...
Setting nuTilda = 4.5e-05 at inout
Setting nut wall BC for wing. BCType=nutUSpaldingWallFunction
Running Primal Solver 008
Previous solution time 286 not found and nothing deleted.
No finite volume options present

Starting time loop

Checking mesh quality for time = 0
    Overall domain bounding box (-17.36890858260534 -18.57896538942192 0) (18.72743829956522 18.5815534461853 0.1)
    Mesh has 3 geometric (non-empty/wedge) directions 3{1}
    Mesh has 3 solution (non-empty) directions 3{1}
    Boundary openness (2.832001783584386e-19 -9.635316413114692e-19 3.656023850209462e-16) OK.
    Max cell openness = 2.448664376822881e-16 OK.
    Max aspect ratio = 97.90618709529919 OK.
    Minimum face area = 2.254526015386024e-06. Maximum face area = 4.22452785209643.  Face area magnitudes OK.
    Min volume = 2.254526051802714e-07. Max volume = 0.4224527851240419.  Total volume = 105.272788719501.  Cell volumes OK.
    Mesh non-orthogonality Max: 22.81255351898476 average: 2.547999046774211
    Non-orthogonality check OK.
    Face pyramids OK.
    Max skewness = 1.434518920799704 OK.
    Coupled point location match (average 0) OK.

Mesh OK.

Time = 1

U Initial residual: (0.0002219079781257324 0.000245383005745763 0.9996749086716951)
U   Final residual: (2.080724190235296e-05 2.282105399749371e-05 0.0716373416731033)
p Initial residual: 0.008277982294769629
p   Final residual: 0.0005772387288256098
Time step continuity errors : sum local = 1.497353072815995e-05
                                 global = -8.988382042426694e-07
                             cumulative = 0.0009513534932953557
nuTilda Initial residual: 8.747854373429399e-05
          Final residual: 7.686347195057806e-06
Bounding nuTilda>1e-16
yPlus min: 14.37661796589152 max: 101.976837404469 mean: 61.08447162237825
CD-part1-force: 0.03041789548387121
CL-part1-force: 0.5596822532505682
ExecutionTime = 47.56 s  ClockTime = 47 s

Time = 100

U Initial residual: (1.236366984489644e-05 1.725732990697971e-05 5.161116011819865e-06)
U   Final residual: (1.212105754176366e-06 1.64486968456944e-06 2.616742185588398e-07)
p Initial residual: 0.0002948255829713038
p   Final residual: 2.925558631522407e-05
Time step continuity errors : sum local = 7.51800562392394e-07
                                 global = -2.591472709972547e-09
                             cumulative = 0.0009513509018226458
nuTilda Initial residual: 1.89767453286152e-07
          Final residual: 1.293496529537175e-08
Bounding nuTilda>1e-16
yPlus min: 14.71537244248583 max: 99.99926486934328 mean: 60.29726234847423
CD-part1-force: 0.02051401511586189
CL-part1-force: 0.4997372222198903
ExecutionTime = 48 s  ClockTime = 48 s

Time = 200

U Initial residual: (4.731968969520524e-08 4.828511606380148e-08 8.909466224143836e-09)
U   Final residual: (3.971723482195308e-09 3.603264239840293e-09 8.092562900895062e-10)
p Initial residual: 1.738278783658404e-07
p   Final residual: 1.438184977467281e-08
Time step continuity errors : sum local = 3.695314467727473e-10
                                 global = 4.59764033855515e-11
                             cumulative = 0.0009513509477990491
nuTilda Initial residual: 8.615774602100501e-10
          Final residual: 6.277213542784872e-11
Bounding nuTilda>1e-16
yPlus min: 14.71729931802152 max: 99.99620175022685 mean: 60.29823580880242
CD-part1-force: 0.02052118054878044
CL-part1-force: 0.4996810622745932
ExecutionTime = 48.44 s  ClockTime = 48 s

Time = 246
Minimal residual 9.85889261916102e-09 satisfied the prescribed tolerance 1e-08

CD-part1-force: 0.02052126611804482
CL-part1-force: 0.4996797571237982
Printing Primal Residual Statistics.
U Residual Norm2: (0.0008590763218179181 0.0005195351737739025 6.574021225258188e-07)
U Residual Mean: (6.50721749211823e-06 1.857341636206608e-06 4.953113718178683e-09)
U Residual Max: (0.0002200025023739727 0.0001683926639088895 1.236775265145659e-07)
p Residual Norm2: 0.0001460133724750149
p Residual Mean: 2.455367793099065e-07
p Residual Max: 5.780778956975892e-05
nuTilda Residual Norm2: 2.920210618665864e-07
nuTilda Residual Mean: 1.033655124022871e-09
nuTilda Residual Max: 5.499667924318046e-08
phi Residual Norm2: 9.143611712767664e-07
phi Residual Mean: 2.609188535920231e-09
phi Residual Max: 1.595955781780501e-07
End

Nonlinear constraints
{'cruise.aero_post.functionals.CL': array([0.4996797571237982]),
 'geometry.thickcon': array([1.0005695273680595, 1.0058797546169898, 1.0091335541202187,
       1.009905814849322 , 1.0084323883184532, 1.006690467305274 ,
       1.0057049716004518, 1.0045119836820346, 1.0027146043304345,
       1.0002978387350947, 1.0005695273680615, 1.0058797546169898,
       1.009133554120219 , 1.0099058148493223, 1.008432388318453 ,
       1.006690467305274 , 1.0057049716004514, 1.0045119836820349,
       1.0027146043304338, 1.00029783873509  ]),
 'geometry.volcon': array([1.0073061488276005])}

Objectives
{'cruise.aero_post.functionals.CD': array([0.0205212661180448])}

Computing partials for  ['CD']
Calculating dFdW using reverse-mode AD
    Adding all faces of patches 1(wing) ...
    Found matching patch wing with 32 faces.
Calculating dFdXv using reverse-mode AD
    Adding all faces of patches 1(wing) ...
    Found matching patch wing with 32 faces.
Moving time 246 to 0.00000003
Driver total derivatives for iteration: 3
---------------------------------------------
Calculating [dRdW]^T * Psi using reverse-mode AD
Solving Linear Equation... 49 s
Main iteration 0 KSP Residual norm 3.250499089601e-02 49 s
Main iteration 100 KSP Residual norm 6.712827525850e-05 52 s
Main iteration 168 KSP Residual norm 2.614178715048e-08 55 s 
Total iterations 168
Solving Linear Equation... Completed! 55 s
Residual tolerance satisfied, solution finished!
Calculating [dRdAOA]^T * Psi using reverse-mode AD
Calculating [dRdXv]^T * Psi using reverse-mode AD
Computing partials for  ['CL']
Calculating dFdW using reverse-mode AD
    Adding all faces of patches 1(wing) ...
    Found matching patch wing with 32 faces.
Calculating dFdXv using reverse-mode AD
    Adding all faces of patches 1(wing) ...
    Found matching patch wing with 32 faces.
Solution time 3e-08 less than 1e-4, not renamed.
Calculating [dRdW]^T * Psi using reverse-mode AD
Solving Linear Equation... 56 s
Main iteration 0 KSP Residual norm 1.951272782792e-01 56 s
Main iteration 100 KSP Residual norm 5.132983592618e-04 59 s
Main iteration 170 KSP Residual norm 1.683749680187e-07 62 s 
Total iterations 170
Solving Linear Equation... Completed! 62 s
Residual tolerance satisfied, solution finished!
Calculating [dRdAOA]^T * Psi using reverse-mode AD
Calculating [dRdXv]^T * Psi using reverse-mode AD
   1  2.0521266e-02 3.20e-04 6.86e-02  -5.9 9.91e-03    -  9.71e-01 1.00e+00h  1
Driver debug print for iter coord: rank0:pyOptSparse_IPOPT|3
------------------------------------------------------------
Design Vars
{'dvs.aoa': array([5.131917526172789]),
 'dvs.shape': array([-0.                , -0.                ,  0.                ,
        0.                ,  0.0245026297958718,  0.0245026297958718,
        0.0274550342758755,  0.0274550342758755,  0.0029418240606515,
        0.0029418240606515,  0.0019937020231942,  0.0019937020231942,
       -0.0122143014199594, -0.0122143014199594, -0.0100422680801708,
       -0.0100422680801708,  0.                ,  0.                ,
        0.                ,  0.                ])}

Setting up primal boundary conditions based on pyOptions: 
Setting primal boundary conditions...
Setting U = (9.959913908830494 0.8944914357806097 0) at inout
Setting primal boundary conditions...
Setting p = 0 at inout
Setting primal boundary conditions...
Setting nuTilda = 4.5e-05 at inout
Setting nut wall BC for wing. BCType=nutUSpaldingWallFunction
Running Primal Solver 009
Previous solution time 246 not found and nothing deleted.
No finite volume options present

Starting time loop

Checking mesh quality for time = 0
    Overall domain bounding box (-17.35059378182864 -18.55393974487374 0) (18.7092709634004 18.56898830653126 0.1)
    Mesh has 3 geometric (non-empty/wedge) directions 3{1}
    Mesh has 3 solution (non-empty) directions 3{1}
    Boundary openness (-1.761313899798193e-19 7.110489447333445e-19 1.142291311209899e-16) OK.
    Max cell openness = 2.52647150872999e-16 OK.
    Max aspect ratio = 98.07686608301151 OK.
    Minimum face area = 2.254937096921757e-06. Maximum face area = 4.215979871685088.  Face area magnitudes OK.
    Min volume = 2.254937260669746e-07. Max volume = 0.4215979867399486.  Total volume = 105.0610735901005.  Cell volumes OK.
    Mesh non-orthogonality Max: 23.08835819576156 average: 2.698492865836302
    Non-orthogonality check OK.
    Face pyramids OK.
    Max skewness = 1.443678228945716 OK.
    Coupled point location match (average 0) OK.

Mesh OK.

Time = 1

U Initial residual: (0.000542180719069988 0.0007921655131221775 0.008043791216356851)
U   Final residual: (3.77083497957818e-05 5.485355564865209e-05 0.0005761206348222581)
p Initial residual: 0.03426727658686607
p   Final residual: 0.003180944362441445
Time step continuity errors : sum local = 8.314344483807119e-05
                                 global = -4.52436024763708e-06
                             cumulative = 0.000946826587551412
nuTilda Initial residual: 0.0001861429828606152
          Final residual: 1.829149394597249e-05
Bounding nuTilda>1e-16
yPlus min: 15.72999654031901 max: 100.4824761041401 mean: 61.50261274998331
CD-part1-force: 0.07352483606357806
CL-part1-force: 0.7660183212969796
[...]
Total iterations 172
Solving Linear Equation... Completed! 382 s
Residual tolerance satisfied, solution finished!
Calculating [dRdAOA]^T * Psi using reverse-mode AD
Calculating [dRdXv]^T * Psi using reverse-mode AD
  18  1.7802048e-02 1.70e-07 1.28e-06 -11.0 7.53e-03    -  1.00e+00 1.00e+00h  1

Number of Iterations....: 18

                                   (scaled)                 (unscaled)
Objective...............:   1.7802048261136842e-02    1.7802048261136842e-02
Dual infeasibility......:   1.2772077136644213e-06    1.2772077136644213e-06
Constraint violation....:   1.6990528556304341e-07    1.6990528556304341e-07
Complementarity.........:   9.9999999999999994e-12    9.9999999999999994e-12
Overall NLP error.......:   1.2772077136644213e-06    1.2772077136644213e-06


Number of objective function evaluations             = 30
Number of objective gradient evaluations             = 19
Number of equality constraint evaluations            = 32
Number of inequality constraint evaluations          = 30
Number of equality constraint Jacobian evaluations   = 19
Number of inequality constraint Jacobian evaluations = 19
Number of Lagrangian Hessian evaluations             = 0
Total CPU secs in IPOPT (w/o function evaluations)   =      0.025
Total CPU secs in NLP function evaluations           =    350.417

EXIT: Optimal Solution Found.


Optimization Problem -- Optimization using pyOpt_sparse
================================================================================
    Objective Function: _objfunc

    Solution: 
--------------------------------------------------------------------------------
    Total Time:                  350.9881
       User Objective Time :      74.9367
       User Sensitivity Time :   275.8755
       Interface Time :            0.1416
       Opt Solver Time:            0.0344
    Calls to Objective Function :      32
    Calls to Sens Function :           19


   Objectives
      Index  Name                                       Value
          0  cruise.aero_post.functionals.CD     1.780205E-02

   Variables (c - continuous, i - integer, d - discrete)
      Index  Name           Type      Lower Bound            Value      Upper Bound     Status
          0  dvs.shape_0       c    -1.000000E+00     1.313741E-26     1.000000E+00           
          1  dvs.shape_1       c    -1.000000E+00     1.313741E-26     1.000000E+00           
          2  dvs.shape_2       c    -1.000000E+00     0.000000E+00     1.000000E+00           
          3  dvs.shape_3       c    -1.000000E+00     0.000000E+00     1.000000E+00           
          4  dvs.shape_4       c    -1.000000E+00     3.493425E-02     1.000000E+00           
          5  dvs.shape_5       c    -1.000000E+00     3.493425E-02     1.000000E+00           
          6  dvs.shape_6       c    -1.000000E+00     4.191595E-02     1.000000E+00           
          7  dvs.shape_7       c    -1.000000E+00     4.191595E-02     1.000000E+00           
          8  dvs.shape_8       c    -1.000000E+00     1.396782E-02     1.000000E+00           
          9  dvs.shape_9       c    -1.000000E+00     1.396782E-02     1.000000E+00           
         10  dvs.shape_10      c    -1.000000E+00     4.175773E-02     1.000000E+00           
         11  dvs.shape_11      c    -1.000000E+00     4.175773E-02     1.000000E+00           
         12  dvs.shape_12      c    -1.000000E+00     5.774523E-02     1.000000E+00           
         13  dvs.shape_13      c    -1.000000E+00     5.774523E-02     1.000000E+00           
         14  dvs.shape_14      c    -1.000000E+00     1.164856E-02     1.000000E+00           
         15  dvs.shape_15      c    -1.000000E+00     1.164856E-02     1.000000E+00           
         16  dvs.shape_16      c    -1.000000E+00     0.000000E+00     1.000000E+00           
         17  dvs.shape_17      c    -1.000000E+00     0.000000E+00     1.000000E+00           
         18  dvs.shape_18      c    -1.000000E+00     0.000000E+00     1.000000E+00           
         19  dvs.shape_19      c    -1.000000E+00     0.000000E+00     1.000000E+00           
         20  dvs.aoa_0         c     0.000000E+00     1.214762E+00     1.000000E+01           

   Constraints (i - inequality, e - equality)
      Index  Name                            Type          Lower           Value           Upper    Status  Lagrange Multiplier (N/A)
          0  cruise.aero_post.functionals.CL    e   5.000000E-01    4.999998E-01    5.000000E-01              9.00000E+100
          1  geometry.tecon                     e   0.000000E+00    0.000000E+00    0.000000E+00              9.00000E+100
          2  geometry.tecon                     e   0.000000E+00    0.000000E+00    0.000000E+00              9.00000E+100
          3  geometry.lecon                     e   0.000000E+00    2.627483E-26    0.000000E+00              9.00000E+100
          4  geometry.lecon                     e   0.000000E+00    0.000000E+00    0.000000E+00              9.00000E+100
          5  geometry.linearcon                 e   0.000000E+00    0.000000E+00    0.000000E+00              9.00000E+100
          6  geometry.linearcon                 e   0.000000E+00    0.000000E+00    0.000000E+00              9.00000E+100
          7  geometry.linearcon                 e   0.000000E+00    0.000000E+00    0.000000E+00              9.00000E+100
          8  geometry.linearcon                 e   0.000000E+00    0.000000E+00    0.000000E+00              9.00000E+100
          9  geometry.linearcon                 e   0.000000E+00    0.000000E+00    0.000000E+00              9.00000E+100
         10  geometry.linearcon                 e   0.000000E+00    0.000000E+00    0.000000E+00              9.00000E+100
         11  geometry.linearcon                 e   0.000000E+00    0.000000E+00    0.000000E+00              9.00000E+100
         12  geometry.linearcon                 e   0.000000E+00    0.000000E+00    0.000000E+00              9.00000E+100
         13  geometry.linearcon                 e   0.000000E+00    0.000000E+00    0.000000E+00              9.00000E+100
         14  geometry.linearcon                 e   0.000000E+00    0.000000E+00    0.000000E+00              9.00000E+100
         15  geometry.thickcon                  i   5.000000E-01    1.002001E+00    3.000000E+00              9.00000E+100
         16  geometry.thickcon                  i   5.000000E-01    1.026930E+00    3.000000E+00              9.00000E+100
         17  geometry.thickcon                  i   5.000000E-01    1.054347E+00    3.000000E+00              9.00000E+100
         18  geometry.thickcon                  i   5.000000E-01    1.073915E+00    3.000000E+00              9.00000E+100
         19  geometry.thickcon                  i   5.000000E-01    1.060778E+00    3.000000E+00              9.00000E+100
         20  geometry.thickcon                  i   5.000000E-01    9.812192E-01    3.000000E+00              9.00000E+100
         21  geometry.thickcon                  i   5.000000E-01    8.802982E-01    3.000000E+00              9.00000E+100
         22  geometry.thickcon                  i   5.000000E-01    8.394505E-01    3.000000E+00              9.00000E+100
         23  geometry.thickcon                  i   5.000000E-01    8.774645E-01    3.000000E+00              9.00000E+100
         24  geometry.thickcon                  i   5.000000E-01    9.847005E-01    3.000000E+00              9.00000E+100
         25  geometry.thickcon                  i   5.000000E-01    1.002001E+00    3.000000E+00              9.00000E+100
         26  geometry.thickcon                  i   5.000000E-01    1.026930E+00    3.000000E+00              9.00000E+100
         27  geometry.thickcon                  i   5.000000E-01    1.054347E+00    3.000000E+00              9.00000E+100
         28  geometry.thickcon                  i   5.000000E-01    1.073915E+00    3.000000E+00              9.00000E+100
         29  geometry.thickcon                  i   5.000000E-01    1.060778E+00    3.000000E+00              9.00000E+100
         30  geometry.thickcon                  i   5.000000E-01    9.812192E-01    3.000000E+00              9.00000E+100
         31  geometry.thickcon                  i   5.000000E-01    8.802982E-01    3.000000E+00              9.00000E+100
         32  geometry.thickcon                  i   5.000000E-01    8.394505E-01    3.000000E+00              9.00000E+100
         33  geometry.thickcon                  i   5.000000E-01    8.774645E-01    3.000000E+00              9.00000E+100
         34  geometry.thickcon                  i   5.000000E-01    9.847005E-01    3.000000E+00              9.00000E+100
         35  geometry.volcon                    i   1.000000E+00    1.000000E+00    1.000000E+30         l    9.00000E+100

--------------------------------------------------------------------------------

Driver debug print for iter coord: rank0:pyOptSparse_IPOPT|33
-------------------------------------------------------------
Design Vars
{'dvs.aoa': array([1.2147619294338683]),
 'dvs.shape': array([0.                , 0.                , 0.                ,
       0.                , 0.034934250806791 , 0.034934250806791 ,
       0.0419159545512756, 0.0419159545512756, 0.0139678167130338,
       0.0139678167130338, 0.0417577256962603, 0.0417577256962603,
       0.0577452322798911, 0.0577452322798911, 0.0116485579419128,
       0.0116485579419128, 0.                , 0.                ,
       0.                , 0.                ])}

Setting up primal boundary conditions based on pyOptions: 
Setting primal boundary conditions...
Setting U = (9.997752545973622 0.2120000695234374 0) at inout
Setting primal boundary conditions...
Setting p = 0 at inout
Setting primal boundary conditions...
Setting nuTilda = 4.5e-05 at inout
Setting nut wall BC for wing. BCType=nutUSpaldingWallFunction
Running Primal Solver 039
Previous solution time 317 not found and nothing deleted.
No finite volume options present

Starting time loop

Checking mesh quality for time = 0
    Overall domain bounding box (-17.32007449611027 -18.48650185153269 0) (18.67712900027227 18.57195591969045 0.1)
    Mesh has 3 geometric (non-empty/wedge) directions 3{1}
    Mesh has 3 solution (non-empty) directions 3{1}
    Boundary openness (-3.633021136345646e-19 -1.309196805890323e-20 1.039879635820909e-16) OK.
    Max cell openness = 2.694662553457398e-16 OK.
    Max aspect ratio = 98.93332925142509 OK.
    Minimum face area = 2.229194671177086e-06. Maximum face area = 4.201853315246632.  Face area magnitudes OK.
    Min volume = 2.229195320491592e-07. Max volume = 0.4201853305598094.  Total volume = 104.6960962629366.  Cell volumes OK.
    Mesh non-orthogonality Max: 23.84115803707659 average: 2.913942230917291
    Non-orthogonality check OK.
    Face pyramids OK.
    Max skewness = 1.472098376699708 OK.
    Coupled point location match (average 0) OK.

Mesh OK.

Time = 1

U Initial residual: (0.0001754815652210144 0.0001548097047405768 1.822833761661087e-05)
U   Final residual: (1.511679183048704e-05 1.247668969607917e-05 1.425808543933971e-06)
p Initial residual: 0.001962905036083045
p   Final residual: 0.0001858679053611211
Time step continuity errors : sum local = 4.008503556880247e-06
                                 global = -5.307584956808237e-07
                             cumulative = 0.0008512752032901477
nuTilda Initial residual: 7.698581716231746e-05
          Final residual: 6.336749458301493e-06
Bounding nuTilda>1e-16
yPlus min: 18.19646223752951 max: 94.52781539795582 mean: 64.23604515217086
CD-part1-force: 0.01682374684918916
CL-part1-force: 0.4997339440394629
ExecutionTime = 382.98 s  ClockTime = 383 s

Time = 100

U Initial residual: (4.86611389756951e-06 3.626013417613304e-06 1.617662533462648e-06)
U   Final residual: (4.567520472916102e-07 3.581549361844741e-07 1.596169165895794e-07)
p Initial residual: 2.088147323009439e-05
p   Final residual: 1.670607734288644e-06
Time step continuity errors : sum local = 3.596703317348634e-08
                                 global = -1.390854551566378e-08
                             cumulative = 0.0008512612947446321
nuTilda Initial residual: 1.464928159406469e-07
          Final residual: 1.034113178840553e-08
Bounding nuTilda>1e-16
yPlus min: 18.12344453522621 max: 92.39656889722285 mean: 63.02305507181197
CD-part1-force: 0.01779449718001706
CL-part1-force: 0.5001438004438248
ExecutionTime = 383.45 s  ClockTime = 384 s

Time = 200

U Initial residual: (1.928091927995019e-07 2.306313806303859e-07 5.711958480817319e-08)
U   Final residual: (1.499146348968903e-08 1.783515161979779e-08 4.166030719901567e-09)
p Initial residual: 4.281781638102079e-07
p   Final residual: 3.558991956883634e-08
Time step continuity errors : sum local = 7.661786874938218e-10
                                 global = -1.059344086827042e-10
                             cumulative = 0.0008512611888102234
nuTilda Initial residual: 3.465110966381411e-09
          Final residual: 2.197762545519413e-10
Bounding nuTilda>1e-16
yPlus min: 18.12293912923801 max: 92.39330649557462 mean: 63.02262235099727
CD-part1-force: 0.01780169480414365
CL-part1-force: 0.5000072837369326
ExecutionTime = 383.94 s  ClockTime = 384 s

Time = 300

U Initial residual: (9.732752285385458e-09 1.177733381856668e-08 2.710024658039497e-09)
U   Final residual: (7.888560804330138e-10 9.046291486250077e-10 2.029547774629377e-10)
p Initial residual: 1.763591971990832e-08
p   Final residual: 1.494230244344809e-09
Time step continuity errors : sum local = 3.216749952072868e-11
                                 global = 6.061178520591274e-12
                             cumulative = 0.0008512611948714019
nuTilda Initial residual: 1.335490418560254e-10
          Final residual: 9.432425697251597e-12
Bounding nuTilda>1e-16
yPlus min: 18.12290953076685 max: 92.39316705786588 mean: 63.02260334171883
CD-part1-force: 0.01780204155616063
CL-part1-force: 0.4999999772449411
ExecutionTime = 384.42 s  ClockTime = 385 s

Time = 315
Minimal residual 9.846527035618866e-09 satisfied the prescribed tolerance 1e-08

CD-part1-force: 0.0178020481896805
CL-part1-force: 0.4999998313238074
Printing Primal Residual Statistics.
U Residual Norm2: (0.0003543547698168048 0.0002631148677020031 2.942621563896766e-06)
U Residual Mean: (3.245225221120751e-06 1.065475956615085e-06 2.22128514916736e-08)
U Residual Max: (4.294927430237294e-05 7.043853338473127e-05 5.352622631521616e-07)
p Residual Norm2: 8.715193017289898e-05
p Residual Mean: 1.492139978462819e-07
p Residual Max: 3.902461817077354e-05
nuTilda Residual Norm2: 4.372288019123319e-08
nuTilda Residual Mean: 1.818691618038915e-10
nuTilda Residual Max: 6.985448381301586e-09
phi Residual Norm2: 5.204697356751702e-07
phi Residual Mean: 1.552581651474178e-09
phi Residual Max: 1.162230712894012e-07
End

Nonlinear constraints
{'cruise.aero_post.functionals.CL': array([0.4999998313238074]),
 'geometry.thickcon': array([1.0020008704230692, 1.02693048302331  , 1.054346750474457 ,
       1.0739153791545624, 1.0607780020174502, 0.9812191674690405,
       0.8802981641765063, 0.8394504620703062, 0.877464523219945 ,
       0.9847005485605107, 1.002000870423071 , 1.02693048302331  ,
       1.0543467504744573, 1.0739153791545624, 1.0607780020174498,
       0.9812191674690404, 0.8802981641765061, 0.8394504620703065,
       0.8774645232199453, 0.9847005485604993]),
 'geometry.volcon': array([0.9999999939714904])}

Objectives
{'cruise.aero_post.functionals.CD': array([0.0178020481896805])}

/home/dafoamuser/dafoam/packages/miniconda3/lib/python3.8/site-packages/openmdao/core/component.py:140: OMDeprecationWarning:'cruise.coupling.solver' <class DAFoamSolver>: It appears this component mixes distributed/non-distributed inputs and outputs, so it may break starting with OpenMDAO 3.25, where the convention used when passing data between distributed and non-distributed inputs and outputs within a matrix free component will change. See https://github.com/OpenMDAO/POEMs/blob/master/POEM_075.md for details.
/home/dafoamuser/dafoam/packages/miniconda3/lib/python3.8/site-packages/openmdao/core/problem.py:1011: DerivativesWarning:Inefficient choice of derivative mode.  You chose 'rev' for a problem with 21 design variables and 23 response variables (objectives and nonlinear constraints).
/home/dafoamuser/dafoam/packages/miniconda3/lib/python3.8/site-packages/openmdao/visualization/opt_report/opt_report.py:634: UserWarning: Attempting to set identical low and high ylims makes transformation singular; automatically expanding.
  ax.set_ylim([ymin_plot, ymax_plot])
/home/dafoamuser/dafoam/packages/miniconda3/lib/python3.8/site-packages/openmdao/core/component.py:140: OMDeprecationWarning:'cruise.coupling.solver' <class DAFoamSolver>: It appears this component mixes distributed/non-distributed inputs and outputs, so it may break starting with OpenMDAO 3.25, where the convention used when passing data between distributed and non-distributed inputs and outputs within a matrix free component will change. See https://github.com/OpenMDAO/POEMs/blob/master/POEM_075.md for details.
/home/dafoamuser/dafoam/packages/miniconda3/lib/python3.8/site-packages/openmdao/core/problem.py:1011: DerivativesWarning:Inefficient choice of derivative mode.  You chose 'rev' for a problem with 21 design variables and 23 response variables (objectives and nonlinear constraints).
/home/dafoamuser/dafoam/packages/miniconda3/lib/python3.8/site-packages/openmdao/visualization/opt_report/opt_report.py:634: UserWarning: Attempting to set identical low and high ylims makes transformation singular; automatically expanding.
  ax.set_ylim([ymin_plot, ymax_plot])
/home/dafoamuser/dafoam/packages/miniconda3/lib/python3.8/site-packages/openmdao/core/component.py:140: OMDeprecationWarning:'cruise.coupling.solver' <class DAFoamSolver>: It appears this component mixes distributed/non-distributed inputs and outputs, so it may break starting with OpenMDAO 3.25, where the convention used when passing data between distributed and non-distributed inputs and outputs within a matrix free component will change. See https://github.com/OpenMDAO/POEMs/blob/master/POEM_075.md for details.
/home/dafoamuser/dafoam/packages/miniconda3/lib/python3.8/site-packages/openmdao/core/problem.py:1011: DerivativesWarning:Inefficient choice of derivative mode.  You chose 'rev' for a problem with 21 design variables and 23 response variables (objectives and nonlinear constraints).
/home/dafoamuser/dafoam/packages/miniconda3/lib/python3.8/site-packages/openmdao/visualization/opt_report/opt_report.py:634: UserWarning: Attempting to set identical low and high ylims makes transformation singular; automatically expanding.
  ax.set_ylim([ymin_plot, ymax_plot])
/home/dafoamuser/dafoam/packages/miniconda3/lib/python3.8/site-packages/openmdao/core/component.py:140: OMDeprecationWarning:'cruise.coupling.solver' <class DAFoamSolver>: It appears this component mixes distributed/non-distributed inputs and outputs, so it may break starting with OpenMDAO 3.25, where the convention used when passing data between distributed and non-distributed inputs and outputs within a matrix free component will change. See https://github.com/OpenMDAO/POEMs/blob/master/POEM_075.md for details.
/home/dafoamuser/dafoam/packages/miniconda3/lib/python3.8/site-packages/openmdao/core/problem.py:1011: DerivativesWarning:Inefficient choice of derivative mode.  You chose 'rev' for a problem with 21 design variables and 23 response variables (objectives and nonlinear constraints).
/home/dafoamuser/dafoam/packages/miniconda3/lib/python3.8/site-packages/openmdao/visualization/opt_report/opt_report.py:634: UserWarning: Attempting to set identical low and high ylims makes transformation singular; automatically expanding.
  ax.set_ylim([ymin_plot, ymax_plot])
Finalising parallel run
Finalising parallel run
